Version 4
SHEET 1 3864 3572
WIRE 1408 608 1344 608
WIRE 1712 608 1472 608
WIRE 1072 640 848 640
WIRE 1200 640 1136 640
WIRE 1712 640 1712 608
WIRE 1344 656 1344 608
WIRE 848 672 848 640
WIRE 1344 768 1344 736
WIRE 1424 768 1344 768
WIRE 1712 768 1712 720
WIRE 1712 768 1424 768
WIRE 848 784 848 752
WIRE 976 784 848 784
WIRE 1120 784 976 784
WIRE 1200 784 1200 720
WIRE 1200 784 1120 784
WIRE 976 832 976 784
WIRE 1120 832 1120 784
WIRE 1216 832 1120 832
WIRE 1424 832 1424 768
WIRE 1424 832 1296 832
WIRE 1408 912 1344 912
WIRE 1712 912 1472 912
WIRE 1344 960 1344 912
WIRE 1712 976 1712 912
WIRE 1344 1104 1344 1040
WIRE 1376 1104 1344 1104
WIRE 1712 1104 1712 1056
WIRE 1712 1104 1376 1104
WIRE 1120 1152 1120 832
WIRE 1216 1152 1120 1152
WIRE 1376 1152 1376 1104
WIRE 1376 1152 1296 1152
FLAG 976 832 0
SYMBOL ind2 1184 624 R0
SYMATTR InstName Lp1
SYMATTR Value {Lp}
SYMATTR Type ind
SYMBOL cap 1136 624 R90
WINDOW 0 0 32 VBottom 2
WINDOW 3 32 32 VTop 2
SYMATTR InstName C3
SYMATTR Value {Cp}
SYMBOL ind2 1328 640 R0
SYMATTR InstName Ls1
SYMATTR Value {Ls}
SYMATTR Type ind
SYMBOL cap 1472 592 R90
WINDOW 0 -6 32 VBottom 2
WINDOW 3 32 32 VTop 2
SYMATTR InstName C4
SYMATTR Value {Cs}
SYMBOL voltage_us 848 656 R0
WINDOW 123 -114 72 Left 2
WINDOW 39 0 0 Left 0
WINDOW 3 -301 30 Left 2
SYMATTR Value2 AC 1
SYMATTR Value SINE(0 127 {fop1})
SYMATTR InstName V1
SYMBOL ind2 1328 944 R0
SYMATTR InstName Ls2
SYMATTR Value {Ls}
SYMATTR Type ind
SYMBOL cap 1472 896 R90
WINDOW 0 -6 32 VBottom 2
WINDOW 3 32 32 VTop 2
SYMATTR InstName C1
SYMATTR Value {Cs}
SYMBOL res 1696 960 R0
SYMATTR InstName R6
SYMATTR Value {R1}
SYMBOL res 1696 624 R0
SYMATTR InstName R1
SYMATTR Value {R}
SYMBOL res 1312 816 R90
WINDOW 0 0 56 VBottom 2
WINDOW 3 32 56 VTop 2
SYMATTR InstName R2
SYMATTR Value 100k
SYMBOL res 1312 1136 R90
WINDOW 0 0 56 VBottom 2
WINDOW 3 32 56 VTop 2
SYMATTR InstName R3
SYMATTR Value 100k
TEXT 200 1104 Left 2 !;tran 0 2m 0 1e-8
TEXT 208 1312 Left 2 !.param f=150k  \n.param Ls=68.8u\n.param Lp=107.42u\n.param Cp 1/(4*pi*pi*f*f*Lp)\n.param Cs 1/(4*pi*pi*f*f*Ls)
TEXT 192 1056 Left 2 !.ac lin 1000 100000 300000
TEXT 208 968 Left 2 !.param fop1=150k
TEXT 208 824 Left 2 !.options gmin=1e-10   \n.options abstol=1e-10  \n.options reltol=0.003  \n.options cshunt=1e-15
TEXT -336 1168 Left 2 !K1 Lp1 Ls1 0.31\nK2 Lp1 Ls2  0.31
TEXT -624 1176 Left 2 !K9 Ls1 Ls2 {ks}
TEXT -544 976 Left 2 !.param ks=-0.4
TEXT 1976 728 Left 2 !.param RX=40\n.param R=(RX*8) /(pi*pi)\n.param R2=1/((1/20)-(1/RX))\n.param R1=(R2*8) /(pi*pi)
