Version 4
SHEET 1 3864 3572
WIRE 2304 528 2272 528
WIRE 2304 592 2304 528
WIRE 1520 608 1456 608
WIRE 1696 608 1584 608
WIRE 1072 640 848 640
WIRE 1200 640 1136 640
WIRE 1792 640 1616 640
WIRE 1456 656 1456 608
WIRE 848 672 848 640
WIRE 2304 736 2304 672
WIRE 2304 736 2272 736
WIRE 1280 768 1280 752
WIRE 1312 768 1280 768
WIRE 1440 768 1392 768
WIRE 1456 768 1456 736
WIRE 1504 768 1456 768
WIRE 1616 768 1616 640
WIRE 1616 768 1584 768
WIRE 848 784 848 752
WIRE 976 784 848 784
WIRE 1040 784 976 784
WIRE 1200 784 1200 720
WIRE 1200 784 1120 784
WIRE 976 832 976 784
WIRE 1440 832 1440 768
WIRE 1280 928 1280 768
WIRE 1296 928 1280 928
WIRE 1440 928 1440 896
WIRE 1440 928 1376 928
FLAG 976 832 0
FLAG 2272 528 VOUT+
FLAG 2272 736 VOUT-
FLAG 1696 608 VOUT+
FLAG 1792 640 VOUT-
SYMBOL ind2 1184 624 R0
SYMATTR InstName Lp
SYMATTR Value {Lp}
SYMATTR Type ind
SYMBOL cap 1136 624 R90
WINDOW 0 0 32 VBottom 2
WINDOW 3 32 32 VTop 2
SYMATTR InstName C3
SYMATTR Value {Cp}
SYMBOL ind2 1440 640 R0
SYMATTR InstName Ls
SYMATTR Value {Ls}
SYMATTR Type ind
SYMBOL cap 1584 592 R90
WINDOW 0 -6 32 VBottom 2
WINDOW 3 32 32 VTop 2
SYMATTR InstName C4
SYMATTR Value {Cs}
SYMBOL voltage_us 848 656 R0
WINDOW 123 -114 72 Left 2
WINDOW 39 0 0 Left 0
WINDOW 3 -301 30 Left 2
SYMATTR Value2 AC 1
SYMATTR Value SINE(0 127 {fop1})
SYMATTR InstName V1
SYMBOL ind2 1408 752 R90
WINDOW 0 4 56 VBottom 2
WINDOW 3 32 56 VTop 2
SYMATTR InstName Lr
SYMATTR Value {Lr}
SYMATTR Type ind
SYMBOL cap 1456 896 R180
WINDOW 0 24 56 Left 2
WINDOW 3 24 8 Left 2
SYMATTR InstName C1
SYMATTR Value {Cr}
SYMBOL res 2288 576 R0
SYMATTR InstName R6
SYMATTR Value 16.12
SYMBOL res 1136 768 R90
WINDOW 0 0 56 VBottom 2
WINDOW 3 32 56 VTop 2
SYMATTR InstName R1
SYMATTR Value 0.2
SYMBOL res 1392 912 R90
WINDOW 0 0 56 VBottom 2
WINDOW 3 32 56 VTop 2
SYMATTR InstName R2
SYMATTR Value 0.1
SYMBOL res 1600 752 R90
WINDOW 0 0 56 VBottom 2
WINDOW 3 32 56 VTop 2
SYMATTR InstName R3
SYMATTR Value 0.3
TEXT 200 1104 Left 2 !;tran 0 2m 0 1e-8
TEXT 208 1312 Left 2 !.param f=130k\n.param Ls=60u\n.param Lr=80u\n.param Lp=60u\n.param Cp 1/(4*pi*pi*f*f*Lp)\n.param Cs 1/(4*pi*pi*f*f*Ls)\n.param Cr  1/(4*pi*pi*f*f*Lr)\n.param k1=0.2\n.param k2=-0.2
TEXT 192 1056 Left 2 !.ac lin 1000 100000 300000
TEXT 208 968 Left 2 !.param fop1=180k
TEXT 208 824 Left 2 !.options gmin=1e-10   \n.options abstol=1e-10  \n.options reltol=0.003  \n.options cshunt=1e-15
TEXT -336 1168 Left 2 !K1 Lp  Lr  {k1}\nK2 Ls Lr   {k2}
TEXT -624 1176 Left 2 !K9 Lp Ls {kps}
TEXT -544 976 Left 2 !.param kps=0
