Version 4
SHEET 1 3864 3572
WIRE 1072 576 848 576
WIRE 1200 576 1136 576
WIRE 1408 608 1344 608
WIRE 1600 608 1472 608
WIRE 1200 640 1200 576
WIRE 1600 640 1600 608
WIRE 1344 656 1344 608
WIRE 848 672 848 576
WIRE 1344 768 1344 736
WIRE 1520 768 1344 768
WIRE 1600 768 1600 720
WIRE 1600 768 1520 768
WIRE 848 784 848 752
WIRE 1200 784 1200 720
WIRE 1200 784 848 784
WIRE 1520 896 1520 768
WIRE 1408 1072 1344 1072
WIRE 1600 1072 1472 1072
WIRE 1344 1120 1344 1072
WIRE 1600 1120 1600 1072
WIRE 1344 1232 1344 1200
WIRE 1600 1232 1600 1200
WIRE 1600 1232 1344 1232
FLAG 1520 896 0
SYMBOL ind2 1184 624 R0
SYMATTR InstName Lp1
SYMATTR Value {Lp}
SYMATTR Type ind
SYMBOL cap 1136 560 R90
WINDOW 0 0 32 VBottom 2
WINDOW 3 32 32 VTop 2
SYMATTR InstName C3
SYMATTR Value {Cp}
SYMBOL ind2 1328 640 R0
SYMATTR InstName Ls1
SYMATTR Value {Ls}
SYMATTR Type ind
SYMBOL cap 1472 592 R90
WINDOW 0 -6 32 VBottom 2
WINDOW 3 32 32 VTop 2
SYMATTR InstName C4
SYMATTR Value {Cs}
SYMBOL voltage_us 848 656 R0
WINDOW 123 -114 72 Left 2
WINDOW 39 0 0 Left 0
WINDOW 3 -288 -200 Left 2
SYMATTR Value2 AC 1
SYMATTR Value SINE()
SYMATTR InstName V1
SYMBOL ind2 1328 1104 R0
SYMATTR InstName Ls2
SYMATTR Value {Ls}
SYMATTR Type ind
SYMBOL cap 1472 1056 R90
WINDOW 0 -6 32 VBottom 2
WINDOW 3 32 32 VTop 2
SYMATTR InstName C1
SYMATTR Value {Cs}
SYMBOL res 1584 624 R0
SYMATTR InstName R1
SYMATTR Value 8
SYMBOL res 1584 1104 R0
SYMATTR InstName R2
SYMATTR Value 8
TEXT 208 1312 Left 2 !.param f=150k  \n.param Ls=17.65u\n.param Lp=23.75u\n.param Cp 47.6n\n.param Cs 62.8n\n.param k=0.20
TEXT 192 1056 Left 2 !.ac lin 1000 100000 300000
TEXT 208 968 Left 2 !.param fop1=150k
TEXT 208 824 Left 2 !.options gmin=1e-10   \n.options abstol=1e-10  \n.options reltol=0.003  \n.options cshunt=1e-15
TEXT -336 1168 Left 2 !K1 Lp1 Ls1  0.15\nK2 Lp1 Ls2 0.15\nK3 Ls1 Ls2 0
