Version 4
SHEET 1 3864 3572
WIRE 1680 512 1584 512
WIRE 1840 512 1680 512
WIRE 1680 528 1680 512
WIRE 1840 560 1840 512
WIRE 1872 560 1840 560
WIRE 1408 608 1344 608
WIRE 1584 608 1584 576
WIRE 1584 608 1472 608
WIRE 1872 624 1872 560
WIRE 1072 640 848 640
WIRE 1200 640 1136 640
WIRE 1680 640 1680 592
WIRE 1680 640 1504 640
WIRE 1344 656 1344 608
WIRE 848 672 848 640
WIRE 1584 672 1584 608
WIRE 1680 672 1680 640
WIRE 1872 736 1872 688
WIRE 1872 736 1776 736
WIRE 1344 768 1344 736
WIRE 1504 768 1504 640
WIRE 1504 768 1344 768
WIRE 848 784 848 752
WIRE 1200 784 1200 720
WIRE 1200 784 848 784
WIRE 1584 784 1584 736
WIRE 1680 784 1680 736
WIRE 1680 784 1584 784
WIRE 1776 784 1776 736
WIRE 1776 784 1680 784
WIRE 1840 784 1840 768
WIRE 1840 784 1776 784
WIRE 1840 960 1840 784
WIRE 1872 960 1840 960
WIRE 1680 976 1584 976
WIRE 1840 976 1840 960
WIRE 1840 976 1680 976
WIRE 1680 992 1680 976
WIRE 1408 1072 1344 1072
WIRE 1584 1072 1584 1040
WIRE 1584 1072 1472 1072
WIRE 1872 1088 1872 960
WIRE 1680 1104 1680 1056
WIRE 1680 1104 1504 1104
WIRE 1344 1120 1344 1072
WIRE 2112 1120 2080 1120
WIRE 1584 1136 1584 1072
WIRE 1680 1136 1680 1104
WIRE 1872 1184 1872 1152
WIRE 1872 1184 1792 1184
WIRE 2112 1184 2112 1120
WIRE 1344 1232 1344 1200
WIRE 1504 1232 1504 1104
WIRE 1504 1232 1344 1232
WIRE 1584 1248 1584 1200
WIRE 1680 1248 1680 1200
WIRE 1680 1248 1584 1248
WIRE 1744 1248 1680 1248
WIRE 1792 1248 1792 1184
WIRE 1792 1248 1744 1248
WIRE 1840 1248 1792 1248
WIRE 1744 1312 1744 1248
WIRE 2112 1328 2112 1264
WIRE 2112 1328 2080 1328
FLAG 1840 512 VOUT+
FLAG 2080 1120 VOUT+
FLAG 2080 1328 VOUT-
FLAG 1840 1248 VOUT-
FLAG 1744 1312 0
SYMBOL ind2 1184 624 R0
SYMATTR InstName Lp1
SYMATTR Value {Lp}
SYMATTR Type ind
SYMBOL cap 1136 624 R90
WINDOW 0 0 32 VBottom 2
WINDOW 3 32 32 VTop 2
SYMATTR InstName C3
SYMATTR Value {Cp}
SYMBOL ind2 1328 640 R0
SYMATTR InstName Ls1
SYMATTR Value {Ls}
SYMATTR Type ind
SYMBOL cap 1472 592 R90
WINDOW 0 -6 32 VBottom 2
WINDOW 3 32 32 VTop 2
SYMATTR InstName C4
SYMATTR Value {Cs}
SYMBOL voltage_us 848 656 R0
WINDOW 123 -114 72 Left 2
WINDOW 39 0 0 Left 0
WINDOW 3 -288 -200 Left 2
SYMATTR Value2 AC 1
SYMATTR Value PULSE(-20 20 10n 10n 10n {T/2} {T} 0)
SYMATTR InstName V1
SYMBOL schottky 1600 576 R180
WINDOW 0 24 64 Left 2
WINDOW 3 24 0 Left 2
SYMATTR InstName D15
SYMATTR Value MBRS1100
SYMATTR Description Diode
SYMATTR Type diode
SYMBOL cap 1856 624 R0
SYMATTR InstName C7
SYMATTR Value 5µ
SYMBOL res 2096 1168 R0
SYMATTR InstName R6
SYMATTR Value 20
SYMBOL ind2 1328 1104 R0
SYMATTR InstName Ls2
SYMATTR Value {Ls}
SYMATTR Type ind
SYMBOL cap 1472 1056 R90
WINDOW 0 -6 32 VBottom 2
WINDOW 3 32 32 VTop 2
SYMATTR InstName C1
SYMATTR Value {Cs}
SYMBOL cap 1856 1088 R0
SYMATTR InstName C2
SYMATTR Value 5µ
SYMBOL schottky 1696 592 R180
WINDOW 0 24 64 Left 2
WINDOW 3 24 0 Left 2
SYMATTR InstName D5
SYMATTR Value MBRS1100
SYMATTR Description Diode
SYMATTR Type diode
SYMBOL schottky 1696 736 R180
WINDOW 0 24 64 Left 2
WINDOW 3 24 0 Left 2
SYMATTR InstName D6
SYMATTR Value MBRS1100
SYMATTR Description Diode
SYMATTR Type diode
SYMBOL schottky 1600 736 R180
WINDOW 0 24 64 Left 2
WINDOW 3 24 0 Left 2
SYMATTR InstName D7
SYMATTR Value MBRS1100
SYMATTR Description Diode
SYMATTR Type diode
SYMBOL schottky 1600 1040 R180
WINDOW 0 24 64 Left 2
WINDOW 3 24 0 Left 2
SYMATTR InstName D1
SYMATTR Value MBRS1100
SYMATTR Description Diode
SYMATTR Type diode
SYMBOL schottky 1696 1056 R180
WINDOW 0 24 64 Left 2
WINDOW 3 24 0 Left 2
SYMATTR InstName D2
SYMATTR Value MBRS1100
SYMATTR Description Diode
SYMATTR Type diode
SYMBOL schottky 1696 1200 R180
WINDOW 0 24 64 Left 2
WINDOW 3 24 0 Left 2
SYMATTR InstName D3
SYMATTR Value MBRS1100
SYMATTR Description Diode
SYMATTR Type diode
SYMBOL schottky 1600 1200 R180
WINDOW 0 24 64 Left 2
WINDOW 3 24 0 Left 2
SYMATTR InstName D4
SYMATTR Value MBRS1100
SYMATTR Description Diode
SYMATTR Type diode
TEXT 200 1104 Left 2 !.tran 0 2m 0 1e-8
TEXT 208 1312 Left 2 !.param f=150k  \n.param Ls=17.65u\n.param Lp=23.75u\n.param Cp 47.6n\n.param Cs 62.8n\n.param k=0.20
TEXT 192 1056 Left 2 !;ac lin 1000 100000 300000
TEXT 208 824 Left 2 !.options gmin=1e-10   \n.options abstol=1e-10  \n.options reltol=0.003  \n.options cshunt=1e-15
TEXT -336 1168 Left 2 !K1 Lp1 Ls1  0.19\nK2 Lp1 Ls2  0.17\nK3 Ls1 Ls2 0
TEXT 352 960 Left 2 !.param fop1=190k\n.param T=1/{fop1}
