Version 4
SHEET 1 1300 680
WIRE 304 -144 304 -256
WIRE 304 96 304 -64
WIRE 304 112 304 96
WIRE 240 192 32 192
WIRE 32 208 32 192
WIRE 304 224 304 208
WIRE 304 224 256 224
WIRE 304 288 304 224
FLAG 32 288 0
FLAG 304 288 0
FLAG 32 96 0
FLAG 32 16 VDD
FLAG 304 -256 VDD
FLAG 304 96 Vds
SYMBOL voltage 32 192 R0
WINDOW 123 0 0 Left 0
WINDOW 39 0 0 Left 0
SYMATTR InstName V1
SYMATTR Value PULSE(0 5 0 0.11p 0.11p 1m 20e-3)
SYMBOL ind 288 -160 R0
SYMATTR InstName L1
SYMATTR Value 150µ
SYMATTR SpiceLine Rser=50m
SYMBOL voltage 32 0 R0
WINDOW 123 0 0 Left 0
WINDOW 39 0 0 Left 0
SYMATTR InstName V2
SYMATTR Value 0.500
SYMBOL GaN_LTspice_GS66516B_L1V4P1 256 160 R0
WINDOW 3 305 17 Center 2
SYMATTR InstName U1
TEXT 0 312 Left 2 !.tran 0 10m 0 10n
