Version 4
SHEET 1 3864 3572
WIRE 1680 512 1584 512
WIRE 1728 512 1680 512
WIRE 1840 512 1728 512
WIRE 1680 528 1680 512
WIRE 1408 608 1344 608
WIRE 1584 608 1584 576
WIRE 1584 608 1472 608
WIRE 1728 608 1728 512
WIRE 1072 640 848 640
WIRE 1200 640 1136 640
WIRE 1680 640 1680 592
WIRE 1680 640 1504 640
WIRE 1344 656 1344 608
WIRE 848 672 848 640
WIRE 1584 672 1584 608
WIRE 1680 672 1680 640
WIRE 1344 768 1344 736
WIRE 1504 768 1504 640
WIRE 1504 768 1344 768
WIRE 848 784 848 752
WIRE 976 784 848 784
WIRE 1200 784 1200 720
WIRE 1200 784 976 784
WIRE 1584 784 1584 736
WIRE 1680 784 1680 736
WIRE 1680 784 1584 784
WIRE 1728 784 1728 672
WIRE 1728 784 1680 784
WIRE 1840 784 1728 784
WIRE 976 832 976 784
WIRE 2112 1120 2080 1120
WIRE 2112 1184 2112 1120
WIRE 2112 1328 2112 1264
WIRE 2112 1328 2080 1328
FLAG 976 832 0
FLAG 1840 512 VOUT+
FLAG 1840 784 VOUT-
FLAG 2080 1120 VOUT+
FLAG 2080 1328 VOUT-
SYMBOL ind2 1184 624 R0
SYMATTR InstName Lp1
SYMATTR Value {Lp}
SYMATTR Type ind
SYMBOL cap 1136 624 R90
WINDOW 0 0 32 VBottom 2
WINDOW 3 32 32 VTop 2
SYMATTR InstName C3
SYMATTR Value {Cp}
SYMBOL ind2 1328 640 R0
SYMATTR InstName Ls1
SYMATTR Value {Ls}
SYMATTR Type ind
SYMBOL cap 1472 592 R90
WINDOW 0 -6 32 VBottom 2
WINDOW 3 32 32 VTop 2
SYMATTR InstName C4
SYMATTR Value {Cs}
SYMBOL voltage_us 848 656 R0
WINDOW 123 -114 72 Left 2
WINDOW 39 0 0 Left 0
WINDOW 3 -301 30 Left 2
SYMATTR Value2 AC 1
SYMATTR Value SINE(0 127 {fop1})
SYMATTR InstName V1
SYMBOL diode 1696 736 R180
WINDOW 0 24 64 Left 2
WINDOW 3 24 0 Left 2
SYMATTR InstName D13
SYMBOL diode 1600 736 R180
WINDOW 0 24 64 Left 2
WINDOW 3 24 0 Left 2
SYMATTR InstName D14
SYMBOL diode 1696 592 R180
WINDOW 0 24 64 Left 2
WINDOW 3 24 0 Left 2
SYMATTR InstName D16
SYMBOL diode 1600 576 R180
WINDOW 0 24 64 Left 2
WINDOW 3 24 0 Left 2
SYMATTR InstName D15
SYMBOL cap 1712 608 R0
SYMATTR InstName C7
SYMATTR Value 10µ
SYMBOL res 2096 1168 R0
SYMATTR InstName R6
SYMATTR Value 20
TEXT 200 1104 Left 2 !.tran 0 4m 0 1e-8
TEXT 208 1312 Left 2 !.param f=150k  \n.param f2=150k\n.param Ls=66u\n.param Lp=82u\n.param Cp 1/(4*pi*pi*f*f*Lp)\n.param Cs 1/(4*pi*pi*f2*f2*Ls)\n.param k=0.23
TEXT 192 1056 Left 2 !;ac lin 1000 100000 300000
TEXT 208 968 Left 2 !.param fop1=150k
TEXT 208 824 Left 2 !.options gmin=1e-10   \n.options abstol=1e-10  \n.options reltol=0.003  \n.options cshunt=1e-15
TEXT -336 1168 Left 2 !K1 Lp1 Ls1 0.20
