Version 4
SHEET 1 1636 768
WIRE -240 -1200 -240 -1216
WIRE 32 -1152 32 -1168
WIRE -592 -1120 -592 -1136
WIRE -880 -1104 -928 -1104
WIRE -864 -1104 -880 -1104
WIRE -624 -1104 -784 -1104
WIRE -240 -1104 -240 -1120
WIRE -400 -1088 -560 -1088
WIRE -288 -1088 -320 -1088
WIRE -928 -1072 -928 -1104
WIRE -720 -1072 -752 -1072
WIRE -704 -1072 -720 -1072
WIRE 32 -1056 32 -1072
WIRE -752 -1040 -752 -1072
WIRE -592 -1040 -592 -1056
WIRE -16 -1040 -96 -1040
WIRE -240 -992 -240 -1024
WIRE -1440 -976 -1440 -992
WIRE -96 -976 -96 -1040
WIRE -752 -928 -752 -960
WIRE -1440 -880 -1440 -896
WIRE -1376 -880 -1440 -880
WIRE -224 -880 -224 -896
WIRE -1440 -864 -1440 -880
WIRE -720 -864 -720 -1072
WIRE -400 -864 -720 -864
WIRE -256 -864 -320 -864
WIRE -96 -848 -96 -896
WIRE -96 -848 -192 -848
WIRE -16 -848 -16 -992
WIRE -256 -832 -304 -832
WIRE -240 -832 -256 -832
WIRE -880 -800 -880 -1104
WIRE -560 -800 -880 -800
WIRE -304 -800 -304 -832
WIRE -304 -800 -480 -800
WIRE -224 -800 -224 -816
WIRE 32 -784 32 -976
WIRE -1440 -768 -1440 -784
WIRE 656 -96 656 -144
WIRE 624 -64 560 -64
WIRE -480 -48 -832 -48
WIRE 224 -48 -400 -48
WIRE 496 -48 224 -48
WIRE 560 -48 560 -64
WIRE 560 -48 496 -48
WIRE 624 -48 560 -48
WIRE 992 -48 736 -48
WIRE 1136 -48 992 -48
WIRE 672 -16 656 -16
WIRE 720 96 720 -16
WIRE 1552 112 1552 96
WIRE 224 128 224 -48
WIRE 512 144 256 144
WIRE 1136 176 1136 -48
WIRE -832 192 -832 -48
WIRE 992 192 992 -48
WIRE 176 208 128 208
WIRE 1552 208 1552 192
WIRE 208 320 208 240
WIRE 224 320 224 240
WIRE 224 320 208 320
WIRE -832 496 -832 272
WIRE -608 496 -832 496
WIRE 224 496 224 320
WIRE 224 496 -608 496
WIRE 992 496 992 256
WIRE 992 496 224 496
WIRE 1136 496 1136 256
WIRE 1136 496 992 496
WIRE -608 592 -608 496
FLAG -608 592 0
FLAG -1376 -880 0
FLAG -1440 -992 V+
FLAG -1440 -768 V-
FLAG -752 -928 0
FLAG -592 -1040 V-
FLAG -928 -992 0
FLAG -288 -1040 0
FLAG -240 -1216 g1
FLAG -592 -1136 V+
FLAG -224 -800 V-
FLAG 32 -1168 g2
FLAG -224 -896 V+
FLAG -16 -848 0
FLAG 32 -784 g2s
FLAG -240 -992 0
FLAG 128 208 g1
FLAG 656 -144 g2
FLAG 496 -48 g2s
FLAG 1552 208 0
FLAG 1552 96 Tj
FLAG 720 96 Tj
FLAG 512 144 Tj
SYMBOL nmos_TO247_4L 176 128 R0
WINDOW 3 91 43 Left 2
WINDOW 0 -9 -11 Left 2
SYMATTR Value C3M0120100K
SYMATTR InstName U1
SYMBOL voltage -832 176 R0
WINDOW 123 0 0 Left 0
WINDOW 39 0 0 Left 0
SYMATTR InstName Vsolar
SYMATTR Value 880
SYMBOL ind -384 -64 R90
WINDOW 0 5 56 VBottom 2
WINDOW 3 32 56 VTop 2
SYMATTR InstName Lboost
SYMATTR Value 577µ
SYMBOL res 1120 160 R0
SYMATTR InstName R1
SYMATTR Value 72
SYMBOL cap 976 192 R0
SYMATTR InstName C1
SYMATTR Value 332µ
SYMBOL nmos_TO247_4L 736 -96 R90
WINDOW 3 117 -37 VRight 2
WINDOW 0 -9 -11 Left 2
SYMATTR Value C3M0120100K
SYMATTR InstName U2
SYMBOL voltage -1440 -992 R0
WINDOW 3 38 54 Left 2
WINDOW 123 0 0 Left 0
WINDOW 39 0 0 Left 0
SYMATTR Value 15
SYMATTR InstName V2
SYMBOL voltage -1440 -768 R180
WINDOW 0 24 96 Left 2
WINDOW 3 24 16 Left 2
WINDOW 123 0 0 Left 0
WINDOW 39 0 0 Left 0
SYMATTR InstName V4
SYMATTR Value -4
SYMBOL Comparators\\LTC6752 -592 -1152 R0
WINDOW 3 -40 157 Left 2
SYMATTR InstName U3
SYMBOL voltage -928 -1088 R0
WINDOW 3 -270 57 Left 2
WINDOW 123 0 0 Left 2
WINDOW 39 0 0 Left 2
SYMATTR Value PULSE({-5} {5} 0 {Ts/2} {Ts/2} 0 {Ts})
SYMATTR InstName V6
SYMBOL res -608 -1088 R90
WINDOW 0 0 56 VBottom 2
WINDOW 3 32 56 VTop 2
SYMATTR InstName R2
SYMATTR Value 10
SYMBOL res -768 -1120 R90
WINDOW 0 0 56 VBottom 2
WINDOW 3 32 56 VTop 2
SYMATTR InstName R3
SYMATTR Value 10
SYMBOL res -304 -1104 R90
WINDOW 0 0 56 VBottom 2
WINDOW 3 32 56 VTop 2
SYMATTR InstName R5
SYMATTR Value 10
SYMBOL e -240 -1120 R0
SYMATTR InstName E2
SYMATTR Value 1
SYMBOL Comparators\\LTC6752 -224 -912 R0
WINDOW 3 -40 157 Left 2
SYMATTR InstName U4
SYMBOL res -112 -992 R0
SYMATTR InstName R6
SYMATTR Value 10
SYMBOL e 32 -1072 R0
SYMATTR InstName E3
SYMATTR Value 1
SYMBOL res -256 -1216 R0
SYMATTR InstName R9
SYMATTR Value 2.5
SYMBOL res 16 -1168 R0
SYMATTR InstName R10
SYMATTR Value 2.5
SYMBOL res -304 -880 R90
WINDOW 0 0 56 VBottom 2
WINDOW 3 32 56 VTop 2
SYMATTR InstName R12
SYMATTR Value 10
SYMBOL voltage -752 -1056 R0
WINDOW 123 0 0 Left 0
WINDOW 39 0 0 Left 0
SYMATTR InstName V5
SYMATTR Value {D*10-5}
SYMBOL voltage 1552 96 R0
WINDOW 3 38 54 Left 2
SYMATTR Value 112
SYMATTR InstName V1
SYMBOL res -464 -816 R90
WINDOW 0 0 56 VBottom 2
WINDOW 3 32 56 VTop 2
SYMATTR InstName R4
SYMATTR Value 10
TEXT -224 632 Left 2 !.lib "C:\\Users\\enes_\\Documents\\LTspiceXVII\\lib\\Wolfspeed-SiC\\C3M0120100K.lib"
TEXT -1472 -536 Left 2 !.param Ts = 100u\n.param D = 0.2969
TEXT -2288 368 Left 2 !.options Gmin=1e-7 Abstol=1e-7 reltol=1e-3 chgtol=1e-10
TEXT -168 752 Left 2 !.tran 0 0.1 0 50u
