Version 4
SHEET 1 3864 3572
WIRE 1488 320 1376 320
WIRE 1696 320 1632 320
WIRE 1872 320 1760 320
WIRE 1872 352 1872 320
WIRE 1376 368 1376 320
WIRE 1488 368 1488 320
WIRE 1632 368 1632 320
WIRE 1088 384 864 384
WIRE 1216 384 1152 384
WIRE 864 416 864 384
WIRE 1632 480 1632 448
WIRE 1664 480 1632 480
WIRE 1872 480 1872 432
WIRE 1872 480 1744 480
WIRE 1376 496 1376 448
WIRE 1392 496 1376 496
WIRE 1488 496 1488 432
WIRE 1488 496 1472 496
WIRE 1488 512 1488 496
WIRE 1504 512 1488 512
WIRE 1520 512 1504 512
WIRE 1632 512 1632 480
WIRE 1632 512 1600 512
WIRE 864 528 864 496
WIRE 992 528 864 528
WIRE 1072 528 992 528
WIRE 1216 528 1216 464
WIRE 1216 528 1152 528
WIRE 1248 528 1216 528
WIRE 1360 528 1328 528
WIRE 1376 528 1376 496
WIRE 1376 528 1360 528
WIRE 1504 544 1504 512
WIRE 1504 544 1472 544
WIRE 1696 576 1632 576
WIRE 1872 576 1760 576
WIRE 992 592 992 528
WIRE 1872 608 1872 576
WIRE 1632 624 1632 576
WIRE 1088 688 864 688
WIRE 1216 688 1152 688
WIRE 1472 688 1472 544
WIRE 1488 688 1472 688
WIRE 864 720 864 688
WIRE 1632 736 1632 704
WIRE 1664 736 1632 736
WIRE 1872 736 1872 688
WIRE 1872 736 1744 736
WIRE 1488 768 1488 688
WIRE 1520 768 1488 768
WIRE 1632 768 1632 736
WIRE 1632 768 1600 768
WIRE 864 832 864 800
WIRE 992 832 864 832
WIRE 1072 832 992 832
WIRE 1216 832 1216 768
WIRE 1216 832 1152 832
WIRE 1248 832 1216 832
WIRE 1360 832 1360 528
WIRE 1360 832 1328 832
WIRE 1680 832 1616 832
WIRE 1856 832 1744 832
WIRE 1856 864 1856 832
WIRE 1616 880 1616 832
WIRE 992 896 992 832
WIRE 1616 992 1616 960
WIRE 1648 992 1616 992
WIRE 1856 992 1856 944
WIRE 1856 992 1728 992
WIRE 1472 1024 1472 688
WIRE 1504 1024 1472 1024
WIRE 1616 1024 1616 992
WIRE 1616 1024 1584 1024
WIRE 1680 1088 1616 1088
WIRE 1856 1088 1744 1088
WIRE 1856 1120 1856 1088
WIRE 1616 1136 1616 1088
WIRE 1616 1248 1616 1216
WIRE 1648 1248 1616 1248
WIRE 1856 1248 1856 1200
WIRE 1856 1248 1728 1248
WIRE 1472 1280 1472 1024
WIRE 1504 1280 1472 1280
WIRE 1616 1280 1616 1248
WIRE 1616 1280 1584 1280
FLAG 992 592 0
FLAG 992 896 0
SYMBOL ind2 1616 352 R0
SYMATTR InstName Ls1
SYMATTR Value {Ls}
SYMATTR Type ind
SYMBOL cap 1760 304 R90
WINDOW 0 -6 32 VBottom 2
WINDOW 3 32 32 VTop 2
SYMATTR InstName C4
SYMATTR Value {Cs}
SYMBOL res 1760 464 R90
WINDOW 0 0 56 VBottom 2
WINDOW 3 32 56 VTop 2
SYMATTR InstName R3
SYMATTR Value 0.1
SYMBOL ind2 1360 352 R0
SYMATTR InstName LR
SYMATTR Value {Lr}
SYMATTR Type ind
SYMBOL cap 1472 368 R0
SYMATTR InstName C1
SYMATTR Value {Cr}
SYMBOL res 1488 480 R90
WINDOW 0 0 56 VBottom 2
WINDOW 3 32 56 VTop 2
SYMATTR InstName R4
SYMATTR Value 0.1
SYMBOL ind2 1200 368 R0
SYMATTR InstName Lp2
SYMATTR Value {Lp}
SYMATTR Type ind
SYMBOL cap 1152 368 R90
WINDOW 0 0 32 VBottom 2
WINDOW 3 32 32 VTop 2
SYMATTR InstName C6
SYMATTR Value {Cp}
SYMBOL voltage_us 864 400 R0
WINDOW 123 -114 72 Left 2
WINDOW 39 0 0 Left 0
WINDOW 3 -261 32 Left 2
SYMATTR Value2 AC 1
SYMATTR Value SINE(0 127 {fop1})
SYMATTR InstName V2
SYMBOL res 1168 512 R90
WINDOW 0 0 56 VBottom 2
WINDOW 3 32 56 VTop 2
SYMATTR InstName R6
SYMATTR Value 0.2
SYMBOL res 1856 336 R0
SYMATTR InstName R2
SYMATTR Value {RL}
SYMBOL res 1344 512 R90
WINDOW 0 0 56 VBottom 2
WINDOW 3 32 56 VTop 2
SYMATTR InstName R1
SYMATTR Value 10000
SYMBOL res 1616 496 R90
WINDOW 0 0 56 VBottom 2
WINDOW 3 32 56 VTop 2
SYMATTR InstName R8
SYMATTR Value 10000
SYMBOL ind2 1200 672 R0
SYMATTR InstName Lp1
SYMATTR Value {Lp}
SYMATTR Type ind
SYMBOL cap 1152 672 R90
WINDOW 0 0 32 VBottom 2
WINDOW 3 32 32 VTop 2
SYMATTR InstName C2
SYMATTR Value {Cp}
SYMBOL voltage_us 864 704 R0
WINDOW 123 -114 72 Left 2
WINDOW 39 0 0 Left 0
WINDOW 3 -261 32 Left 2
SYMATTR Value2 AC 1
SYMATTR Value SINE(0 127 {fop1})
SYMATTR InstName V1
SYMBOL res 1168 816 R90
WINDOW 0 0 56 VBottom 2
WINDOW 3 32 56 VTop 2
SYMATTR InstName R5
SYMATTR Value 0.2
SYMBOL res 1344 816 R90
WINDOW 0 0 56 VBottom 2
WINDOW 3 32 56 VTop 2
SYMATTR InstName R7
SYMATTR Value 10000
SYMBOL ind2 1616 608 R0
SYMATTR InstName Ls2
SYMATTR Value {Ls}
SYMATTR Type ind
SYMBOL cap 1760 560 R90
WINDOW 0 -6 32 VBottom 2
WINDOW 3 32 32 VTop 2
SYMATTR InstName C3
SYMATTR Value {Cs}
SYMBOL res 1760 720 R90
WINDOW 0 0 56 VBottom 2
WINDOW 3 32 56 VTop 2
SYMATTR InstName R9
SYMATTR Value 0.1
SYMBOL res 1856 592 R0
SYMATTR InstName R10
SYMATTR Value {RL}
SYMBOL res 1616 752 R90
WINDOW 0 0 56 VBottom 2
WINDOW 3 32 56 VTop 2
SYMATTR InstName R11
SYMATTR Value 10000
SYMBOL ind2 1600 864 R0
SYMATTR InstName Ls3
SYMATTR Value {Ls}
SYMATTR Type ind
SYMBOL cap 1744 816 R90
WINDOW 0 -6 32 VBottom 2
WINDOW 3 32 32 VTop 2
SYMATTR InstName C5
SYMATTR Value {Cs}
SYMBOL res 1744 976 R90
WINDOW 0 0 56 VBottom 2
WINDOW 3 32 56 VTop 2
SYMATTR InstName R12
SYMATTR Value 0.1
SYMBOL res 1840 848 R0
SYMATTR InstName R13
SYMATTR Value {RL}
SYMBOL res 1600 1008 R90
WINDOW 0 0 56 VBottom 2
WINDOW 3 32 56 VTop 2
SYMATTR InstName R14
SYMATTR Value 10000
SYMBOL ind2 1600 1120 R0
SYMATTR InstName Ls4
SYMATTR Value {Ls}
SYMATTR Type ind
SYMBOL cap 1744 1072 R90
WINDOW 0 -6 32 VBottom 2
WINDOW 3 32 32 VTop 2
SYMATTR InstName C7
SYMATTR Value {Cs}
SYMBOL res 1744 1232 R90
WINDOW 0 0 56 VBottom 2
WINDOW 3 32 56 VTop 2
SYMATTR InstName R15
SYMATTR Value 0.1
SYMBOL res 1840 1104 R0
SYMATTR InstName R16
SYMATTR Value {RL}
SYMBOL res 1600 1264 R90
WINDOW 0 0 56 VBottom 2
WINDOW 3 32 56 VTop 2
SYMATTR InstName R17
SYMATTR Value 10000
TEXT 472 688 Left 2 !;tran 0 2m 0 1e-7
TEXT 104 560 Left 2 !.param f1=150k\n.param f2=150k\n.param Lp=74.5u\n.param Lr=74u\n.param Ls=25.5u\n.param Cr 14n\n.param Cp14n\n.param Cs 1/(4*pi*pi*f2*f2*Ls)\n.param RL 32
TEXT 472 624 Left 2 !.ac lin 1000 100000 200000
TEXT 480 576 Left 2 !.param fop1 150k
TEXT 104 400 Left 2 !.options gmin=1e-10   \n.options abstol=1e-10  \n.options reltol=0.003  \n.options cshunt=1e-15
TEXT 512 824 Left 2 !K1 Lp2 LR 0.23\nK2 Lp1 LR 0.23\nK4 LR Ls1 0.41\nK6 LR Ls2 0.41\nK7 LR Ls3 0.41\nK8 LR Ls4 0.41
