Version 4
SHEET 1 3864 3572
WIRE 1408 608 1344 608
WIRE 1552 608 1472 608
WIRE 1072 640 848 640
WIRE 1200 640 1136 640
WIRE 1552 640 1552 608
WIRE 1344 656 1344 608
WIRE 848 672 848 640
WIRE 1344 768 1344 736
WIRE 1552 768 1552 720
WIRE 1552 768 1344 768
WIRE 848 784 848 752
WIRE 976 784 848 784
WIRE 1200 784 1200 720
WIRE 1200 784 976 784
WIRE 976 832 976 784
WIRE 1408 912 1344 912
WIRE 1584 912 1472 912
WIRE 1584 944 1584 912
WIRE 1344 960 1344 912
WIRE 1344 1072 1344 1040
WIRE 1344 1072 1328 1072
WIRE 1584 1072 1584 1024
WIRE 1584 1072 1344 1072
WIRE 1408 1216 1344 1216
WIRE 1616 1216 1472 1216
WIRE 1072 1248 848 1248
WIRE 1088 1248 1072 1248
WIRE 1200 1248 1136 1248
WIRE 1616 1248 1616 1216
WIRE 1344 1264 1344 1216
WIRE 848 1280 848 1248
WIRE 1344 1376 1344 1344
WIRE 1616 1376 1616 1328
WIRE 1616 1376 1344 1376
WIRE 848 1392 848 1360
WIRE 976 1392 848 1392
WIRE 1200 1392 1200 1328
WIRE 1200 1392 976 1392
WIRE 976 1440 976 1392
WIRE 1408 1520 1344 1520
WIRE 1632 1520 1472 1520
WIRE 1632 1552 1632 1520
WIRE 1344 1568 1344 1520
WIRE 992 1584 816 1584
WIRE 1344 1680 1344 1648
WIRE 1344 1680 1328 1680
WIRE 1632 1680 1632 1632
WIRE 1632 1680 1344 1680
WIRE 816 1712 816 1584
WIRE 992 1728 992 1584
WIRE 816 1984 816 1792
WIRE 992 1984 992 1792
WIRE 992 1984 816 1984
FLAG 976 832 0
FLAG 976 1440 0
SYMBOL ind2 1184 624 R0
SYMATTR InstName Lp1
SYMATTR Value {Lp}
SYMATTR Type ind
SYMBOL cap 1136 624 R90
WINDOW 0 0 32 VBottom 2
WINDOW 3 32 32 VTop 2
SYMATTR InstName C3
SYMATTR Value {Cp}
SYMBOL ind2 1328 640 R0
SYMATTR InstName Ls1
SYMATTR Value {Ls}
SYMATTR Type ind
SYMBOL cap 1472 592 R90
WINDOW 0 -6 32 VBottom 2
WINDOW 3 32 32 VTop 2
SYMATTR InstName C4
SYMATTR Value {Cs}
SYMBOL voltage_us 848 656 R0
WINDOW 123 -114 72 Left 2
WINDOW 39 0 0 Left 0
WINDOW 3 -301 30 Left 2
SYMATTR Value2 AC 1
SYMATTR Value SINE(0 127 {fop1})
SYMATTR InstName V1
SYMBOL ind2 1328 944 R0
SYMATTR InstName Ls2
SYMATTR Value {Ls}
SYMATTR Type ind
SYMBOL cap 1472 896 R90
WINDOW 0 -6 32 VBottom 2
WINDOW 3 32 32 VTop 2
SYMATTR InstName C1
SYMATTR Value {Cs}
SYMBOL ind2 1184 1232 R0
SYMATTR InstName Lp2
SYMATTR Value {Lp}
SYMATTR Type ind
SYMBOL cap 1136 1232 R90
WINDOW 0 0 32 VBottom 2
WINDOW 3 32 32 VTop 2
SYMATTR InstName C2
SYMATTR Value {Cp}
SYMBOL ind2 1328 1248 R0
SYMATTR InstName Ls3
SYMATTR Value {Ls}
SYMATTR Type ind
SYMBOL cap 1472 1200 R90
WINDOW 0 -6 32 VBottom 2
WINDOW 3 32 32 VTop 2
SYMATTR InstName C5
SYMATTR Value {Cs}
SYMBOL voltage_us 848 1264 R0
WINDOW 123 -112 48 Left 2
WINDOW 39 0 0 Left 0
WINDOW 3 -231 0 Left 2
SYMATTR Value2 AC 1
SYMATTR Value SINE(0 127 {fop1})
SYMATTR InstName V2
SYMBOL ind2 1328 1552 R0
SYMATTR InstName Ls4
SYMATTR Value {Ls}
SYMATTR Type ind
SYMBOL cap 1472 1504 R90
WINDOW 0 -6 32 VBottom 2
WINDOW 3 32 32 VTop 2
SYMATTR InstName C6
SYMATTR Value {Cs}
SYMBOL ind2 800 1696 R0
SYMATTR InstName Lr
SYMATTR Value {Lr}
SYMATTR Type ind
SYMBOL cap 976 1728 R0
SYMATTR InstName C7
SYMATTR Value {Cr}
SYMBOL res 1536 624 R0
SYMATTR InstName R1
SYMATTR Value 32
SYMBOL res 1568 928 R0
SYMATTR InstName R2
SYMATTR Value 32
SYMBOL res 1600 1232 R0
SYMATTR InstName R3
SYMATTR Value 32
SYMBOL res 1616 1536 R0
SYMATTR InstName R4
SYMATTR Value 32
TEXT 200 1104 Left 2 !;tran 0 4m 0 1e-8
TEXT 208 1312 Left 2 !.param f=150k  \n.param f2=120k\n.param Ls=25u\n.param Lp=82u\n.param Lr= 73u\n.param Cr= 1/(4*pi*pi*f*f*Lr)\n.param Cp 1/(4*pi*pi*f*f*Lp)\n.param Cs 1/(4*pi*pi*f2*f2*Ls)
TEXT 192 1056 Left 2 !.ac lin 1000 100000 300000
TEXT 208 968 Left 2 !.param fop1=155k
TEXT 208 824 Left 2 !.options gmin=1e-10   \n.options abstol=1e-10  \n.options reltol=0.003  \n.options cshunt=1e-15
TEXT -336 1168 Left 2 !K1 Lr  Ls1 0.4\nK2 Lr  Ls2  0.4\nK5 Lr  Ls3 0.4\nK6 Lr  Ls4  0.4
TEXT -96 1168 Left 2 !K7 Lp2 Lr 0.2\nK8 Lp1 Lr 0.2
