Version 4
SHEET 1 3320 1684
WIRE 1072 640 752 640
WIRE 1216 640 1136 640
WIRE 1408 640 1344 640
WIRE 1600 640 1472 640
WIRE 1344 656 1344 640
WIRE 1600 656 1600 640
WIRE 752 672 752 640
WIRE 1344 768 1344 736
WIRE 1456 768 1344 768
WIRE 1600 768 1600 736
WIRE 1600 768 1456 768
WIRE 752 784 752 752
WIRE 944 784 752 784
WIRE 1216 784 1216 720
WIRE 1216 784 944 784
WIRE 1456 800 1456 768
WIRE 944 832 944 784
FLAG 944 832 0
FLAG 1456 800 0
SYMBOL ind2 1200 624 R0
SYMATTR InstName L1
SYMATTR Value 147µ
SYMATTR Type ind
SYMBOL cap 1136 624 R90
WINDOW 0 0 32 VBottom 2
WINDOW 3 32 32 VTop 2
SYMATTR InstName C3
SYMATTR Value 7.64n
SYMBOL ind2 1328 640 R0
SYMATTR InstName L2
SYMATTR Value 120µ
SYMATTR Type ind
SYMBOL cap 1472 624 R90
WINDOW 0 0 32 VBottom 2
WINDOW 3 32 32 VTop 2
SYMATTR InstName C4
SYMATTR Value 9.43n
SYMBOL res 1584 640 R0
SYMATTR InstName R
SYMATTR Value 50
SYMBOL voltage 752 656 R0
WINDOW 123 24 124 Left 2
WINDOW 39 0 0 Left 0
SYMATTR InstName V1
SYMATTR Value SINE()
SYMATTR Value2 AC 1
TEXT 1224 872 Left 2 !K1 L1 L2 {X}
TEXT 718 892 Left 2 !.ac dec 200 100000 300000
TEXT 1232 1000 Left 2 !.step param X list 0.05 0.1 0.15 0.20 0.25 0.3 0.35 0.4 0.45 0.5
