Version 4
SHEET 1 3320 3572
WIRE 1072 640 848 640
WIRE 1216 640 1136 640
WIRE 1408 640 1344 640
WIRE 1632 640 1472 640
WIRE 1344 656 1344 640
WIRE 1632 656 1632 640
WIRE 800 672 848 640
WIRE 1344 768 1344 736
WIRE 1376 768 1344 768
WIRE 848 784 800 752
WIRE 976 784 848 784
WIRE 1200 784 976 784
WIRE 1216 784 1216 720
WIRE 1216 784 1200 784
WIRE 1200 800 1200 784
WIRE 1248 800 1200 800
WIRE 1376 800 1376 768
WIRE 1376 800 1328 800
WIRE 1632 800 1632 736
WIRE 1632 800 1376 800
WIRE 976 832 976 784
WIRE 1200 944 1200 800
WIRE 1200 944 1168 944
WIRE 1376 1008 1312 1008
WIRE 1632 1008 1440 1008
WIRE 1312 1024 1312 1008
WIRE 1632 1072 1632 1008
WIRE 1168 1136 1168 944
WIRE 1216 1136 1168 1136
WIRE 1312 1136 1312 1104
WIRE 1312 1136 1296 1136
WIRE 1312 1216 1312 1136
WIRE 1632 1216 1632 1152
WIRE 1632 1216 1312 1216
WIRE 1056 1712 704 1712
WIRE 1200 1712 1120 1712
WIRE 1392 1712 1328 1712
WIRE 1728 1712 1456 1712
WIRE 1328 1728 1328 1712
WIRE 704 1744 704 1712
WIRE 1728 1760 1728 1712
WIRE 1328 1840 1328 1808
WIRE 1360 1840 1328 1840
WIRE 704 1856 704 1824
WIRE 832 1856 704 1856
WIRE 1184 1856 832 1856
WIRE 1200 1856 1200 1792
WIRE 1200 1856 1184 1856
WIRE 1184 1872 1184 1856
WIRE 1232 1872 1184 1872
WIRE 1360 1872 1360 1840
WIRE 1360 1872 1312 1872
WIRE 1728 1872 1728 1840
WIRE 1728 1872 1360 1872
WIRE 832 1952 832 1856
WIRE 1184 2016 1184 1872
WIRE 1184 2016 1152 2016
WIRE 1360 2080 1296 2080
WIRE 1744 2080 1424 2080
WIRE 1296 2096 1296 2080
WIRE 1744 2112 1744 2080
WIRE 1152 2208 1152 2016
WIRE 1200 2208 1152 2208
WIRE 1296 2208 1296 2176
WIRE 1296 2208 1280 2208
WIRE 1744 2208 1744 2192
WIRE 1744 2208 1296 2208
FLAG 976 832 0
FLAG 832 1952 0
SYMBOL ind2 1200 624 R0
SYMATTR InstName Lp1
SYMATTR Value {Lp}
SYMATTR Type ind
SYMBOL cap 1136 624 R90
WINDOW 0 0 32 VBottom 2
WINDOW 3 32 32 VTop 2
SYMATTR InstName C3
SYMATTR Value {Cp}
SYMBOL ind2 1328 640 R0
SYMATTR InstName Ls1
SYMATTR Value {Ls}
SYMATTR Type ind
SYMBOL cap 1472 624 R90
WINDOW 0 0 32 VBottom 2
WINDOW 3 32 32 VTop 2
SYMATTR InstName C4
SYMATTR Value {Cs}
SYMBOL res 1344 784 R90
WINDOW 0 0 56 VBottom 2
WINDOW 3 32 56 VTop 2
SYMATTR InstName R13
SYMATTR Value 1000
SYMBOL ind2 1296 1008 R0
SYMATTR InstName Ls2
SYMATTR Value {Ls}
SYMATTR Type ind
SYMBOL cap 1440 992 R90
WINDOW 0 0 32 VBottom 2
WINDOW 3 32 32 VTop 2
SYMATTR InstName C1
SYMATTR Value {Cs}
SYMBOL res 1312 1120 R90
WINDOW 0 0 56 VBottom 2
WINDOW 3 32 56 VTop 2
SYMATTR InstName R2
SYMATTR Value 1000
SYMBOL ind2 1184 1696 R0
SYMATTR InstName Lp2
SYMATTR Value {Lp}
SYMATTR Type ind
SYMBOL cap 1120 1696 R90
WINDOW 0 0 32 VBottom 2
WINDOW 3 32 32 VTop 2
SYMATTR InstName C55
SYMATTR Value {Cp}
SYMBOL ind2 1312 1712 R0
SYMATTR InstName Ls3
SYMATTR Value {Ls}
SYMATTR Type ind
SYMBOL cap 1456 1696 R90
WINDOW 0 0 32 VBottom 2
WINDOW 3 32 32 VTop 2
SYMATTR InstName C11
SYMATTR Value {Cs}
SYMBOL res 1328 1856 R90
WINDOW 0 0 56 VBottom 2
WINDOW 3 32 56 VTop 2
SYMATTR InstName R6
SYMATTR Value 1000
SYMBOL ind2 1280 2080 R0
SYMATTR InstName Ls4
SYMATTR Value {Ls}
SYMATTR Type ind
SYMBOL cap 1424 2064 R90
WINDOW 0 0 32 VBottom 2
WINDOW 3 32 32 VTop 2
SYMATTR InstName C16
SYMATTR Value {Cs}
SYMBOL res 1296 2192 R90
WINDOW 0 0 56 VBottom 2
WINDOW 3 32 56 VTop 2
SYMATTR InstName R29
SYMATTR Value 1000
SYMBOL voltage_us 800 656 R0
WINDOW 123 24 124 Left 2
WINDOW 39 0 0 Left 0
SYMATTR Value2 AC 1
SYMATTR InstName V1
SYMATTR Value SINE(0 127 {fop})
SYMBOL voltage_us 704 1728 R0
WINDOW 123 24 124 Left 2
WINDOW 39 0 0 Left 0
SYMATTR Value2 AC 1
SYMATTR InstName V2
SYMATTR Value SINE(0 127 {fop})
SYMBOL res 1616 640 R0
SYMATTR InstName R1
SYMATTR Value {R1}
SYMBOL res 1616 1056 R0
SYMATTR InstName R3
SYMATTR Value {R2}
SYMBOL res 1712 1744 R0
SYMATTR InstName R4
SYMATTR Value {R1}
SYMBOL res 1728 2096 R0
SYMATTR InstName R5
SYMATTR Value {R2}
TEXT 752 1112 Left 2 !.tran 0 4m 0
TEXT 1032 1408 Left 2 !K1 Lp1 Ls1 0.15
TEXT 1032 1448 Left 2 !K2 Lp1 Ls2 0.15
TEXT 1032 1488 Left 2 !K3 Lp2 Ls3 0.15
TEXT 1032 1528 Left 2 !K4 Lp2 Ls4 0.15
TEXT 1216 1408 Left 2 !K6 Lp1 Ls3 0
TEXT 1216 1448 Left 2 !K7 Lp1 Ls4 0
TEXT 1216 1488 Left 2 !K8 Lp2 Ls1 0
TEXT 1216 1528 Left 2 !K9 Lp2 Ls2 0
TEXT 1608 1384 Left 2 !.param f=150k\n.param Ls=68u\n.param Lp=81u\n.param Cp 1/(4*pi*pi*f*f*Lp)\n.param Cs 1/(4*pi*pi*f*f*Ls)\n.param k=0.23
TEXT 744 1064 Left 2 !;ac lin 1000 100000 500000
TEXT 760 976 Left 2 !.param fop=155k
TEXT 1008 1296 Left 2 !K13  Lp1 Lp2 0
TEXT 1776 696 Left 2 !.param R1=100
TEXT 1792 728 Left 2 !.param R2=R1
TEXT 2112 1384 Left 2 !K14 Ls1 Ls4 {ks} \nK10 Ls1 Ls2 {ks}\nK11 Ls2 Ls3 {ks} \nK12 Ls3 Ls4{ks}
TEXT 2152 1528 Left 2 !.param ks=0
