Version 4
SHEET 1 3320 3572
WIRE 2464 496 2368 496
WIRE 2608 496 2464 496
WIRE 2720 496 2608 496
WIRE 2464 512 2464 496
WIRE 2720 512 2720 496
WIRE 2896 512 2720 512
WIRE 2368 592 2368 560
WIRE 2368 592 2064 592
WIRE 2608 608 2608 496
WIRE 2064 624 2064 592
WIRE 2064 624 1472 624
WIRE 2464 624 2464 576
WIRE 2464 624 2208 624
WIRE 1072 640 848 640
WIRE 1216 640 1136 640
WIRE 1408 640 1344 640
WIRE 1472 640 1472 624
WIRE 1344 656 1344 640
WIRE 2368 656 2368 592
WIRE 2464 656 2464 624
WIRE 800 672 848 640
WIRE 2896 720 2896 512
WIRE 1344 768 1344 736
WIRE 1376 768 1344 768
WIRE 2368 768 2368 720
WIRE 2464 768 2464 720
WIRE 2464 768 2368 768
WIRE 2608 768 2608 672
WIRE 2608 768 2464 768
WIRE 2672 768 2608 768
WIRE 848 784 800 752
WIRE 976 784 848 784
WIRE 1200 784 976 784
WIRE 1216 784 1216 720
WIRE 1216 784 1200 784
WIRE 1200 800 1200 784
WIRE 1248 800 1200 800
WIRE 1376 800 1376 768
WIRE 1376 800 1328 800
WIRE 1904 800 1376 800
WIRE 2208 800 2208 624
WIRE 2208 800 1904 800
WIRE 976 832 976 784
WIRE 1904 1040 1904 800
WIRE 2320 1040 1904 1040
WIRE 2400 1168 2400 1040
WIRE 2672 1168 2672 768
WIRE 2672 1168 2400 1168
WIRE 2896 1168 2896 800
WIRE 2896 1168 2672 1168
WIRE 2672 1184 2672 1168
WIRE 2896 1184 2896 1168
FLAG 976 832 0
SYMBOL ind2 1200 624 R0
SYMATTR InstName Lp1
SYMATTR Value {Lp}
SYMATTR Type ind
SYMBOL cap 1136 624 R90
WINDOW 0 0 32 VBottom 2
WINDOW 3 32 32 VTop 2
SYMATTR InstName C3
SYMATTR Value {Cp}
SYMBOL ind2 1328 640 R0
SYMATTR InstName Ls1
SYMATTR Value {Ls}
SYMATTR Type ind
SYMBOL cap 1472 624 R90
WINDOW 0 0 32 VBottom 2
WINDOW 3 32 32 VTop 2
SYMATTR InstName C4
SYMATTR Value {Cs}
SYMBOL res 1344 784 R90
WINDOW 0 0 56 VBottom 2
WINDOW 3 32 56 VTop 2
SYMATTR InstName R13
SYMATTR Value 1000
SYMBOL res 2880 704 R0
SYMATTR InstName R1
SYMATTR Value 20
SYMBOL cap 2592 608 R0
SYMATTR InstName C2
SYMATTR Value 1µ
SYMBOL voltage_us 800 656 R0
WINDOW 123 24 124 Left 2
WINDOW 39 0 0 Left 0
SYMATTR Value2 AC 1
SYMATTR InstName V1
SYMATTR Value SINE(0 127 {fop})
SYMBOL diode 2480 720 R180
WINDOW 0 24 64 Left 2
WINDOW 3 24 0 Left 2
SYMATTR InstName D13
SYMBOL diode 2384 720 R180
WINDOW 0 24 64 Left 2
WINDOW 3 24 0 Left 2
SYMATTR InstName D14
SYMBOL diode 2480 576 R180
WINDOW 0 24 64 Left 2
WINDOW 3 24 0 Left 2
SYMATTR InstName D16
SYMBOL diode 2384 560 R180
WINDOW 0 24 64 Left 2
WINDOW 3 24 0 Left 2
SYMATTR InstName D15
SYMBOL res 2416 1024 R90
WINDOW 0 0 56 VBottom 2
WINDOW 3 32 56 VTop 2
SYMATTR InstName R2
SYMATTR Value 1000
TEXT 752 1112 Left 2 !.tran 0 4m 0
TEXT 1032 1408 Left 2 !K1 Lp1 Ls1 {k}
TEXT 1608 1384 Left 2 !.param f=200k\n.param Ls=65u\n.param Lp=87u\n.param Cp 1/(4*pi*pi*f*f*Lp)\n.param Cs 1/(4*pi*pi*f*f*Ls)\n.param k=0.18
TEXT 744 1064 Left 2 !;ac lin 1000 100000 500000
TEXT 760 976 Left 2 !.param fop=202k
