Version 4
SHEET 1 3864 3572
WIRE 2048 272 1952 272
WIRE 2128 272 2048 272
WIRE 2288 272 2128 272
WIRE 1952 288 1952 272
WIRE 2048 288 2048 272
WIRE 1696 320 1632 320
WIRE 1856 320 1760 320
WIRE 2128 352 2128 272
WIRE 1632 368 1632 320
WIRE 1856 368 1856 320
WIRE 1952 368 1952 352
WIRE 1952 368 1856 368
WIRE 1088 384 864 384
WIRE 1216 384 1152 384
WIRE 2048 384 2048 352
WIRE 2048 384 1856 384
WIRE 864 416 864 384
WIRE 1952 416 1952 368
WIRE 2048 416 2048 384
WIRE 1632 480 1632 448
WIRE 1856 480 1856 384
WIRE 1856 480 1632 480
WIRE 1952 512 1952 480
WIRE 2048 512 2048 480
WIRE 2048 512 1952 512
WIRE 2128 512 2128 416
WIRE 2128 512 2048 512
WIRE 2288 512 2128 512
WIRE 864 528 864 496
WIRE 992 528 864 528
WIRE 1216 528 1216 464
WIRE 1216 528 992 528
WIRE 2048 544 1952 544
WIRE 2128 544 2048 544
WIRE 2288 544 2128 544
WIRE 1952 560 1952 544
WIRE 2048 560 2048 544
WIRE 1696 576 1632 576
WIRE 1872 576 1760 576
WIRE 992 592 992 528
WIRE 1632 624 1632 576
WIRE 2128 624 2128 544
WIRE 1872 640 1872 576
WIRE 1952 640 1952 624
WIRE 1952 640 1872 640
WIRE 2048 656 2048 624
WIRE 2048 656 1888 656
WIRE 1952 688 1952 640
WIRE 2048 688 2048 656
WIRE 1632 736 1632 704
WIRE 1888 736 1888 656
WIRE 1888 736 1632 736
WIRE 2512 736 2512 672
WIRE 1952 784 1952 752
WIRE 2048 784 2048 752
WIRE 2048 784 1952 784
WIRE 2128 784 2128 688
WIRE 2128 784 2048 784
WIRE 2288 784 2128 784
WIRE 2512 912 2512 816
FLAG 992 592 0
FLAG 2288 272 Vout+
FLAG 2288 544 Vout+
FLAG 2288 512 Vout-
FLAG 2288 784 Vout-
FLAG 2512 672 Vout+
FLAG 2512 912 Vout-
SYMBOL ind2 1616 352 R0
SYMATTR InstName Ls1
SYMATTR Value {Ls}
SYMATTR Type ind
SYMBOL cap 1760 304 R90
WINDOW 0 -6 32 VBottom 2
WINDOW 3 32 32 VTop 2
SYMATTR InstName C4
SYMATTR Value {Cs}
SYMBOL ind2 1200 368 R0
SYMATTR InstName Lp2
SYMATTR Value {Lp}
SYMATTR Type ind
SYMBOL cap 1152 368 R90
WINDOW 0 0 32 VBottom 2
WINDOW 3 32 32 VTop 2
SYMATTR InstName C6
SYMATTR Value {Cp}
SYMBOL voltage_us 864 400 R0
WINDOW 123 -114 72 Left 2
WINDOW 39 0 0 Left 0
WINDOW 3 -261 32 Left 2
SYMATTR Value2 AC 1
SYMATTR Value SINE(0 127 {fop1})
SYMATTR InstName V2
SYMBOL ind2 1616 608 R0
SYMATTR InstName Ls2
SYMATTR Value {Ls}
SYMATTR Type ind
SYMBOL cap 1760 560 R90
WINDOW 0 -6 32 VBottom 2
WINDOW 3 32 32 VTop 2
SYMATTR InstName C3
SYMATTR Value {Cs}
SYMBOL diode 1968 352 R180
WINDOW 0 24 64 Left 2
WINDOW 3 24 0 Left 2
SYMATTR InstName D1
SYMBOL diode 2064 352 R180
WINDOW 0 24 64 Left 2
WINDOW 3 24 0 Left 2
SYMATTR InstName D2
SYMBOL diode 1968 480 R180
WINDOW 0 24 64 Left 2
WINDOW 3 24 0 Left 2
SYMATTR InstName D3
SYMBOL diode 2064 480 R180
WINDOW 0 24 64 Left 2
WINDOW 3 24 0 Left 2
SYMATTR InstName D4
SYMBOL cap 2112 352 R0
SYMATTR InstName C8
SYMATTR Value 1µ
SYMBOL diode 1968 624 R180
WINDOW 0 24 64 Left 2
WINDOW 3 24 0 Left 2
SYMATTR InstName D5
SYMBOL diode 2064 624 R180
WINDOW 0 24 64 Left 2
WINDOW 3 24 0 Left 2
SYMATTR InstName D6
SYMBOL diode 1968 752 R180
WINDOW 0 24 64 Left 2
WINDOW 3 24 0 Left 2
SYMATTR InstName D7
SYMBOL diode 2064 752 R180
WINDOW 0 24 64 Left 2
WINDOW 3 24 0 Left 2
SYMATTR InstName D8
SYMBOL cap 2112 624 R0
SYMATTR InstName C9
SYMATTR Value 1µ
SYMBOL res 2496 720 R0
SYMATTR InstName R2
SYMATTR Value 10
TEXT 472 688 Left 2 !.tran 0 1.1m 1m 1e-7
TEXT 104 560 Left 2 !.param f1=150k\n.param f2=150k\n.param Lp=82.51u\n.param Lr=73.98u\n.param Ls=25.47u\n.param Cr 15.21n\n.param Cp 13.60n\n.param Cs 44.2n\n.param RL 33.6
TEXT 472 624 Left 2 !;ac lin 1000 100000 200000
TEXT 104 400 Left 2 !.options gmin=1e-10   \n.options abstol=1e-10  \n.options reltol=0.003  \n.options cshunt=1e-15
TEXT 512 824 Left 2 !K4 Lp2 Ls1 0.2\nK6 Lp2 Ls2 0.2
TEXT 704 1096 Left 2 !.param fop1 160k
