Version 4
SHEET 1 3864 3572
WIRE 2048 272 1952 272
WIRE 2288 272 2128 272
WIRE 1952 288 1952 272
WIRE 2048 288 2048 272
WIRE 1696 320 1632 320
WIRE 1776 320 1760 320
WIRE 2128 352 2128 272
WIRE 1632 368 1632 320
WIRE 1856 368 1856 320
WIRE 1952 368 1952 352
WIRE 1952 368 1856 368
WIRE 1088 384 864 384
WIRE 1216 384 1152 384
WIRE 2048 384 2048 352
WIRE 2048 384 1856 384
WIRE 864 416 864 384
WIRE 1952 416 1952 368
WIRE 2048 416 2048 384
WIRE 1632 480 1632 448
WIRE 1856 480 1856 384
WIRE 1856 480 1632 480
WIRE 1952 512 1952 480
WIRE 2048 512 2048 480
WIRE 2048 512 1952 512
WIRE 2128 512 2128 416
WIRE 2128 512 2048 512
WIRE 2288 512 2128 512
WIRE 864 528 864 496
WIRE 992 528 864 528
WIRE 1216 528 1216 464
WIRE 1216 528 992 528
WIRE 2048 544 1952 544
WIRE 2288 544 2128 544
WIRE 1952 560 1952 544
WIRE 2048 560 2048 544
WIRE 1696 576 1632 576
WIRE 1792 576 1760 576
WIRE 992 592 992 528
WIRE 1392 592 1328 592
WIRE 1520 592 1456 592
WIRE 1632 624 1632 576
WIRE 2128 624 2128 544
WIRE 1328 640 1328 592
WIRE 1872 640 1872 576
WIRE 1952 640 1952 624
WIRE 1952 640 1872 640
WIRE 2048 656 2048 624
WIRE 2048 656 1888 656
WIRE 1952 688 1952 640
WIRE 2048 688 2048 656
WIRE 1632 736 1632 704
WIRE 1888 736 1888 656
WIRE 1888 736 1632 736
WIRE 2512 736 2512 672
WIRE 1328 752 1328 720
WIRE 1520 752 1520 592
WIRE 1520 752 1328 752
WIRE 1952 784 1952 752
WIRE 2048 784 2048 752
WIRE 2048 784 1952 784
WIRE 2128 784 2128 688
WIRE 2128 784 2048 784
WIRE 2288 784 2128 784
WIRE 2512 912 2512 816
FLAG 992 592 0
FLAG 2288 272 Vout+
FLAG 2288 544 Vout+
FLAG 2288 512 Vout-
FLAG 2288 784 Vout-
FLAG 2512 672 Vout+
FLAG 2512 912 Vout-
SYMBOL ind2 1616 352 R0
SYMATTR InstName Lrx1
SYMATTR Value {Ls}
SYMATTR Type ind
SYMBOL cap 1760 304 R90
WINDOW 0 -6 32 VBottom 2
WINDOW 3 32 32 VTop 2
SYMATTR InstName Crx1
SYMATTR Value {Cs}
SYMBOL ind2 1200 368 R0
SYMATTR InstName Ltx
SYMATTR Value {Lp}
SYMATTR Type ind
SYMBOL cap 1152 368 R90
WINDOW 0 0 32 VBottom 2
WINDOW 3 32 32 VTop 2
SYMATTR InstName Ctx
SYMATTR Value {Cp}
SYMBOL voltage_us 864 400 R0
WINDOW 123 -114 72 Left 2
WINDOW 39 0 0 Left 0
WINDOW 3 -261 32 Left 2
SYMATTR Value2 AC 1
SYMATTR Value SINE(0 127 {fop1})
SYMATTR InstName V2
SYMBOL ind2 1616 608 R0
SYMATTR InstName Lrx2
SYMATTR Value {Ls}
SYMATTR Type ind
SYMBOL cap 1760 560 R90
WINDOW 0 -6 32 VBottom 2
WINDOW 3 32 32 VTop 2
SYMATTR InstName Crx2
SYMATTR Value {Cs}
SYMBOL diode 1968 352 R180
WINDOW 0 24 64 Left 2
WINDOW 3 24 0 Left 2
SYMATTR InstName D1
SYMBOL diode 2064 352 R180
WINDOW 0 24 64 Left 2
WINDOW 3 24 0 Left 2
SYMATTR InstName D2
SYMBOL diode 1968 480 R180
WINDOW 0 24 64 Left 2
WINDOW 3 24 0 Left 2
SYMATTR InstName D3
SYMBOL diode 2064 480 R180
WINDOW 0 24 64 Left 2
WINDOW 3 24 0 Left 2
SYMATTR InstName D4
SYMBOL cap 2112 352 R0
SYMATTR InstName C8
SYMATTR Value 10µ
SYMBOL diode 1968 624 R180
WINDOW 0 24 64 Left 2
WINDOW 3 24 0 Left 2
SYMATTR InstName D5
SYMBOL diode 2064 624 R180
WINDOW 0 24 64 Left 2
WINDOW 3 24 0 Left 2
SYMATTR InstName D6
SYMBOL diode 1968 752 R180
WINDOW 0 24 64 Left 2
WINDOW 3 24 0 Left 2
SYMATTR InstName D7
SYMBOL diode 2064 752 R180
WINDOW 0 24 64 Left 2
WINDOW 3 24 0 Left 2
SYMATTR InstName D8
SYMBOL cap 2112 624 R0
SYMATTR InstName C9
SYMATTR Value 10µ
SYMBOL res 2496 720 R0
SYMATTR InstName R2
SYMATTR Value 20
SYMBOL ind2 1312 624 R0
SYMATTR InstName Lmsr
SYMATTR Value {Lr}
SYMATTR Type ind
SYMBOL cap 1456 576 R90
WINDOW 0 -6 32 VBottom 2
WINDOW 3 32 32 VTop 2
SYMATTR InstName Cmsr
SYMATTR Value {Cr}
SYMBOL res 2144 256 R90
WINDOW 0 0 56 VBottom 2
WINDOW 3 32 56 VTop 2
SYMATTR InstName R1
SYMATTR Value 0.01
SYMBOL res 2144 528 R90
WINDOW 0 0 56 VBottom 2
WINDOW 3 32 56 VTop 2
SYMATTR InstName R3
SYMATTR Value 0.01
SYMBOL res 1872 304 R90
WINDOW 0 0 56 VBottom 2
WINDOW 3 32 56 VTop 2
SYMATTR InstName R4
SYMATTR Value 0.01
SYMBOL res 1888 560 R90
WINDOW 0 0 56 VBottom 2
WINDOW 3 32 56 VTop 2
SYMATTR InstName R5
SYMATTR Value 0.01
TEXT 472 688 Left 2 !.tran 0 10.1m 9m 1e-7
TEXT -208 760 Left 2 !.param f1=150k\n.param Lp=82.51u\n.param Lr=73.98u\n.param Ls=68u\n.param Ls2 25u\n.param Cr 1/(2*pi*2*pi*f1*f1*Lr)\n.param Cp 1/(2*pi*2*pi*f1*f1*Lp)\n.param Cs 1/(2*pi*2*pi*f1*f1*Ls)\n.param Cs2 1/(2*pi*2*pi*f1*f1*Ls2)
TEXT 472 624 Left 2 !;ac lin 1000 100000 200000
TEXT 104 400 Left 2 !.options gmin=1e-10   \n.options abstol=1e-10  \n.options reltol=0.003  \n.options cshunt=1e-15
TEXT 704 1096 Left 2 !.param fop1 150k
TEXT 688 808 Left 2 !K1 Ltx Lrx1 0.48\nK2 Ltx Lmsr 0.215\nK3 Lmsr Lrx2 0.2425
