Version 4
SHEET 1 3864 3572
WIRE 2048 272 1952 272
WIRE 2176 272 2128 272
WIRE 2288 272 2256 272
WIRE 1952 288 1952 272
WIRE 2048 288 2048 272
WIRE 1696 320 1632 320
WIRE 1776 320 1760 320
WIRE 1632 368 1632 320
WIRE 1856 368 1856 320
WIRE 1952 368 1952 352
WIRE 1952 368 1856 368
WIRE 2048 384 2048 352
WIRE 2048 384 1856 384
WIRE 1952 416 1952 368
WIRE 2048 416 2048 384
WIRE 1632 480 1632 448
WIRE 1952 512 1952 480
WIRE 2048 512 2048 480
WIRE 2048 512 1952 512
WIRE 2288 512 2048 512
WIRE 1632 608 1632 560
WIRE 1728 608 1632 608
WIRE 1856 608 1856 384
WIRE 1856 608 1728 608
WIRE 1728 672 1728 608
WIRE 2016 848 1920 848
WIRE 2160 848 2096 848
WIRE 2256 848 2240 848
WIRE 1920 864 1920 848
WIRE 2016 864 2016 848
WIRE 1664 880 1600 880
WIRE 1760 880 1728 880
WIRE 1600 928 1600 880
WIRE 1840 944 1840 880
WIRE 1920 944 1920 928
WIRE 1920 944 1840 944
WIRE 2016 960 2016 928
WIRE 2016 960 1856 960
WIRE 1920 992 1920 944
WIRE 2016 992 2016 960
WIRE 2480 992 2480 976
WIRE 2624 992 2480 992
WIRE 2480 1040 2480 992
WIRE 2624 1040 2624 992
WIRE 1600 1088 1600 1008
WIRE 1920 1088 1920 1056
WIRE 2016 1088 2016 1056
WIRE 2016 1088 1920 1088
WIRE 2256 1088 2016 1088
WIRE 1600 1104 1600 1088
WIRE 2480 1184 2480 1120
WIRE 2624 1184 2624 1104
WIRE 2624 1184 2480 1184
WIRE 2480 1216 2480 1184
WIRE 1600 1248 1600 1168
WIRE 1856 1248 1856 960
WIRE 1856 1248 1600 1248
FLAG 2288 272 Vout+
FLAG 2256 848 Vout+
FLAG 2288 512 Vout-
FLAG 2256 1088 Vout-
FLAG 2480 976 Vout+
FLAG 2480 1216 Vout-
FLAG 1728 672 0
SYMBOL ind2 1616 352 R0
SYMATTR InstName Lrx1
SYMATTR Value {Ls}
SYMATTR Type ind
SYMBOL cap 1760 304 R90
WINDOW 0 -6 32 VBottom 2
WINDOW 3 32 32 VTop 2
SYMATTR InstName Crx1
SYMATTR Value {Cs}
SYMBOL ind2 1584 912 R0
SYMATTR InstName Lrx2
SYMATTR Value {Ls}
SYMATTR Type ind
SYMBOL cap 1728 864 R90
WINDOW 0 -6 32 VBottom 2
WINDOW 3 32 32 VTop 2
SYMATTR InstName Crx2
SYMATTR Value {Cs}
SYMBOL diode 1968 352 R180
WINDOW 0 24 64 Left 2
WINDOW 3 24 0 Left 2
SYMATTR InstName D1
SYMBOL diode 2064 352 R180
WINDOW 0 24 64 Left 2
WINDOW 3 24 0 Left 2
SYMATTR InstName D2
SYMBOL diode 1968 480 R180
WINDOW 0 24 64 Left 2
WINDOW 3 24 0 Left 2
SYMATTR InstName D3
SYMBOL diode 2064 480 R180
WINDOW 0 24 64 Left 2
WINDOW 3 24 0 Left 2
SYMATTR InstName D4
SYMBOL diode 1936 928 R180
WINDOW 0 24 64 Left 2
WINDOW 3 24 0 Left 2
SYMATTR InstName D5
SYMBOL diode 2032 928 R180
WINDOW 0 24 64 Left 2
WINDOW 3 24 0 Left 2
SYMATTR InstName D6
SYMBOL diode 1936 1056 R180
WINDOW 0 24 64 Left 2
WINDOW 3 24 0 Left 2
SYMATTR InstName D7
SYMBOL diode 2032 1056 R180
WINDOW 0 24 64 Left 2
WINDOW 3 24 0 Left 2
SYMATTR InstName D8
SYMBOL res 2464 1024 R0
SYMATTR InstName R2
SYMATTR Value 20
SYMBOL res 2144 256 R90
WINDOW 0 0 56 VBottom 2
WINDOW 3 32 56 VTop 2
SYMATTR InstName R1
SYMATTR Value 0.01
SYMBOL res 2112 832 R90
WINDOW 0 0 56 VBottom 2
WINDOW 3 32 56 VTop 2
SYMATTR InstName R3
SYMATTR Value 0.01
SYMBOL res 1872 304 R90
WINDOW 0 0 56 VBottom 2
WINDOW 3 32 56 VTop 2
SYMATTR InstName R4
SYMATTR Value 0.01
SYMBOL res 1856 864 R90
WINDOW 0 0 56 VBottom 2
WINDOW 3 32 56 VTop 2
SYMATTR InstName R5
SYMATTR Value 0.01
SYMBOL voltage_us 1632 464 R0
WINDOW 123 -114 72 Left 2
WINDOW 39 0 0 Left 0
WINDOW 3 -261 32 Left 2
SYMATTR Value2 AC 1
SYMATTR Value SINE(0 95 {fop1} 1.66u)
SYMATTR InstName V3
SYMBOL voltage_us 1600 1072 R0
WINDOW 123 -114 72 Left 2
WINDOW 39 0 0 Left 0
WINDOW 3 -261 32 Left 2
SYMATTR Value2 AC 1
SYMATTR Value SINE(0 100 {fop1})
SYMATTR InstName V1
SYMBOL ind 2272 256 R90
WINDOW 0 5 56 VBottom 2
WINDOW 3 32 56 VTop 2
SYMATTR InstName L1
SYMATTR Value 100µ
SYMBOL ind 2256 832 R90
WINDOW 0 5 56 VBottom 2
WINDOW 3 32 56 VTop 2
SYMATTR InstName L2
SYMATTR Value 100µ
SYMBOL cap 2608 1040 R0
SYMATTR InstName C1
SYMATTR Value 100µ
TEXT 472 688 Left 2 !.tran 0 2.1m 1m 1e-7
TEXT -208 760 Left 2 !.param f1=150k\n.param Lp=82.51u\n.param Lr=73.98u\n.param Ls=68u\n.param Ls2 25u\n.param Cr 1/(2*pi*2*pi*f1*f1*Lr)\n.param Cp 1/(2*pi*2*pi*f1*f1*Lp)\n.param Cs 1/(2*pi*2*pi*f1*f1*Ls)\n.param Cs2 1/(2*pi*2*pi*f1*f1*Ls2)
TEXT 472 624 Left 2 !;ac lin 1000 100000 200000
TEXT 104 400 Left 2 !.options gmin=1e-10   \n.options abstol=1e-10  \n.options reltol=0.003  \n.options cshunt=1e-15
TEXT 704 1096 Left 2 !.param fop1 150k
