Version 4
SHEET 1 1312 760
WIRE 144 48 48 48
WIRE -304 64 -400 64
WIRE 48 64 48 48
WIRE 48 64 -224 64
WIRE 320 80 256 80
WIRE 416 80 320 80
WIRE 592 80 416 80
WIRE 672 80 592 80
WIRE 48 112 48 64
WIRE 144 112 48 112
WIRE 48 144 48 112
WIRE 112 176 80 176
WIRE -144 224 -240 224
WIRE -32 224 -64 224
WIRE 112 224 80 224
WIRE -240 240 -240 224
WIRE -400 272 -400 64
WIRE -400 272 -528 272
WIRE -528 352 -528 272
WIRE 160 432 48 432
WIRE -400 464 -400 272
WIRE -272 464 -400 464
WIRE 48 464 48 432
WIRE 48 464 -192 464
WIRE 320 464 320 80
WIRE 320 464 272 464
WIRE 48 496 48 464
WIRE 160 496 48 496
WIRE 48 544 48 496
WIRE 112 576 80 576
WIRE -128 624 -192 624
WIRE -32 624 -48 624
WIRE 112 624 80 624
WIRE -192 640 -192 624
FLAG 48 272 0
FLAG 48 672 0
FLAG 416 144 0
FLAG -192 720 0
FLAG 704 480 0
FLAG 576 480 0
FLAG 576 400 Tj
FLAG 112 176 Tj
FLAG 112 576 Tj
FLAG 704 400 Tc
FLAG 112 224 Tc
FLAG 112 624 Tc
FLAG 672 160 0
FLAG -528 432 0
FLAG -240 320 0
FLAG 592 80 Vout
IOPIN 592 80 Out
FLAG -528 272 Vin
IOPIN -528 272 In
SYMBOL Cree\ Diode\\C4D10120D 208 80 R0
WINDOW 3 22 -49 Left 2
SYMATTR InstName U1
SYMBOL Cree\ Diode\\C4D10120D 224 464 R0
SYMATTR InstName U2
SYMBOL ind -320 80 R270
WINDOW 0 32 56 VTop 2
WINDOW 3 5 56 VBottom 2
SYMATTR InstName L1
SYMATTR Value 450µ
SYMBOL ind -288 480 R270
WINDOW 0 32 56 VTop 2
WINDOW 3 5 56 VBottom 2
SYMATTR InstName L2
SYMATTR Value 450µ
SYMBOL cap 400 80 R0
SYMATTR InstName C1
SYMATTR Value 2820µ
SYMBOL Cree\ Mosfet\\power_nmos_heat 0 208 R0
WINDOW 3 227 -7 Right 2
SYMATTR Value C2M0080120D
SYMATTR InstName U3
SYMBOL Cree\ Mosfet\\power_nmos_heat 0 608 R0
WINDOW 3 226 -8 Right 2
SYMATTR Value C2M0080120D
SYMATTR InstName U4
SYMBOL res -48 208 R90
WINDOW 0 0 56 VBottom 2
WINDOW 3 32 56 VTop 2
SYMATTR InstName R3
SYMATTR Value 2
SYMBOL res -32 608 R90
WINDOW 0 0 56 VBottom 2
WINDOW 3 32 56 VTop 2
SYMATTR InstName R2
SYMATTR Value 2
SYMBOL voltage -192 624 R0
SYMATTR InstName V2
SYMATTR Value PULSE(-2 18 0 1n 1n {D*Ts} {Ts})
SYMBOL voltage 576 384 R0
SYMATTR InstName V8
SYMATTR Value 100
SYMBOL voltage 704 384 R0
SYMATTR InstName V9
SYMATTR Value 90
SYMBOL res 656 64 R0
SYMATTR InstName R1
SYMATTR Value 40.96
SYMBOL voltage -528 336 R0
SYMATTR InstName V1
SYMATTR Value 450
SYMBOL voltage -240 224 R0
WINDOW 123 0 0 Left 2
WINDOW 39 0 0 Left 2
SYMATTR InstName V7
SYMATTR Value PULSE(-2 18 5u 1n 1n {D*Ts} {Ts})
TEXT -24 -32 Left 2 ;Vin=450Vdc, Vo=640Vdc, fsw=100KHz, Po=10KW
TEXT -464 -112 Left 2 !.options Gmin=1e-7 Abstol=1e-7 reltol=1e-2 chgtol=1e-9
TEXT -456 -80 Left 2 !.param Ts = 10u\n.param D = 0.2969
TEXT -464 -168 Left 2 !.inc "C:\\Program Files (x86)\\LTC\\LTspiceIV\\lib\\Cree Power C4D Packaged SPICE Model Library.lib"\n.inc "C:\\Program Files (x86)\\LTC\\LTspiceIV\\lib\\C2M0080120D - Packaged.lib"
TEXT -456 -16 Left 2 !.tran 0.05
TEXT 376 624 Left 2 ;Notes:\n1) It is the customer's responsibility to operation in the actual prototype.\n2) Modifying circuit may affect the performance of the design.\nCopyright © 2016 Wolfspeed Inc. All rights reserved.
