Version 4
SHEET 1 1300 1736
WIRE -96 160 -448 160
WIRE 224 160 -96 160
WIRE -448 192 -448 160
WIRE -432 192 -448 192
WIRE -352 208 -400 208
WIRE -96 208 -96 160
WIRE 0 224 -64 224
WIRE -480 272 -496 272
WIRE 224 272 224 160
WIRE -128 288 -144 288
WIRE -912 304 -1040 304
WIRE -816 304 -912 304
WIRE -576 304 -736 304
WIRE -432 304 -432 272
WIRE -1040 320 -1040 304
WIRE -912 336 -912 304
WIRE -576 352 -576 304
WIRE -432 352 -432 304
WIRE -432 352 -576 352
WIRE 224 352 224 272
WIRE -96 368 -96 320
WIRE -96 400 -96 368
WIRE -96 400 -784 400
WIRE -1040 416 -1040 400
WIRE -432 416 -432 352
WIRE -432 464 -432 416
WIRE -416 464 -432 464
WIRE -96 464 -96 400
WIRE -352 480 -384 480
WIRE -32 480 -64 480
WIRE -912 496 -912 480
WIRE -912 496 -1040 496
WIRE -784 496 -784 400
WIRE -784 496 -912 496
WIRE -1696 512 -1696 496
WIRE -1472 544 -1472 528
WIRE -464 544 -480 544
WIRE -144 544 -160 544
WIRE -1696 608 -1696 592
WIRE -1632 608 -1696 608
WIRE -1696 624 -1696 608
WIRE -416 704 -416 576
WIRE -96 704 -96 576
WIRE -96 704 -416 704
WIRE 144 704 -96 704
WIRE 224 704 224 432
WIRE 224 704 144 704
WIRE -1696 720 -1696 704
WIRE -1296 800 -1296 784
WIRE -1344 816 -1424 816
WIRE -1424 880 -1424 816
WIRE 64 880 64 864
WIRE -976 896 -976 880
WIRE 16 896 -64 896
WIRE -1536 960 -1536 944
WIRE -64 960 -64 896
WIRE -1840 976 -1904 976
WIRE -1568 976 -1760 976
WIRE -1200 976 -1200 960
WIRE 384 976 384 960
WIRE -1424 992 -1424 960
WIRE -1424 992 -1504 992
WIRE -1360 992 -1424 992
WIRE -1232 992 -1280 992
WIRE -976 992 -976 976
WIRE -1904 1008 -1904 976
WIRE -1664 1008 -1696 1008
WIRE -1648 1008 -1664 1008
WIRE -1136 1008 -1168 1008
WIRE -1024 1008 -1056 1008
WIRE -1696 1040 -1696 1008
WIRE -1536 1040 -1536 1024
WIRE -176 1040 -176 1024
WIRE -1200 1056 -1200 1040
WIRE -480 1056 -544 1056
WIRE -208 1056 -400 1056
WIRE 160 1056 160 1040
WIRE -64 1072 -64 1040
WIRE -64 1072 -144 1072
WIRE 0 1072 -64 1072
WIRE 128 1072 80 1072
WIRE 384 1072 384 1056
WIRE -544 1088 -544 1056
WIRE -304 1088 -336 1088
WIRE -288 1088 -304 1088
WIRE 224 1088 192 1088
WIRE 336 1088 304 1088
WIRE -176 1120 -176 1104
WIRE 160 1136 160 1120
WIRE -1696 1152 -1696 1120
FLAG 224 272 IN
IOPIN 224 272 In
FLAG 144 704 0
FLAG -1696 1152 0
FLAG -1632 608 0
FLAG -1696 496 V+
FLAG -1696 720 V-
FLAG -1536 944 V+
FLAG -1536 1040 V-
FLAG -1904 1088 0
FLAG -1664 1008 sine+
FLAG -1472 624 0
FLAG -1472 528 TJ
FLAG -352 208 TJ
FLAG -352 480 TJ
FLAG -32 480 TJ
FLAG 0 224 TJ
FLAG -160 544 g4
FLAG -432 416 Ha
FLAG -96 368 Hb
FLAG -144 288 g3
FLAG -480 544 g2
FLAG -496 272 g1
FLAG -1344 864 0
FLAG -1296 880 0
FLAG -1296 704 g2
FLAG -1200 1056 V-
FLAG -1024 1056 0
FLAG -976 1072 Ha
FLAG -976 880 g1
FLAG -1200 960 V+
FLAG -1232 1024 0
FLAG -176 1024 V+
FLAG -176 1120 V-
FLAG -544 1168 0
FLAG -304 1088 sine+
FLAG 16 944 0
FLAG 64 960 Hb
FLAG 64 784 g3
FLAG 160 1136 V-
FLAG 336 1136 0
FLAG 384 1152 0
FLAG 384 960 g4
FLAG 160 1040 V+
FLAG 128 1104 0
SYMBOL voltage 224 336 R0
WINDOW 123 24 124 Left 2
WINDOW 39 24 152 Left 2
SYMATTR InstName V17
SYMATTR Value {Vin}
SYMBOL Comparators\\LTC6752 -1536 928 R0
SYMATTR InstName U1
SYMBOL voltage -1696 1024 R0
WINDOW 3 -137 166 Left 2
WINDOW 123 0 0 Left 2
WINDOW 39 0 0 Left 2
SYMATTR Value SINE(0 {Vs} {fl} 0 0 0)
SYMATTR InstName V1
SYMBOL voltage -1904 992 R0
WINDOW 3 -218 131 Left 2
WINDOW 123 0 0 Left 2
WINDOW 39 0 0 Left 2
SYMATTR Value PULSE({-Vr} {Vr} {Ts/2} {Ts/2} {Ts/2} 0 {Ts})
SYMATTR InstName V2
SYMBOL res -1552 992 R90
WINDOW 0 0 56 VBottom 2
WINDOW 3 32 56 VTop 2
SYMATTR InstName R3
SYMATTR Value 2.5
SYMBOL res -1744 960 R90
WINDOW 0 0 56 VBottom 2
WINDOW 3 32 56 VTop 2
SYMATTR InstName R4
SYMATTR Value 2.5
SYMBOL voltage -1696 496 R0
SYMATTR InstName V3
SYMATTR Value {Vp}
SYMBOL voltage -1696 720 R180
WINDOW 0 24 96 Left 2
WINDOW 3 24 16 Left 2
SYMATTR InstName V4
SYMATTR Value {Vn}
SYMBOL voltage -1472 528 R0
SYMATTR InstName V13
SYMATTR Value {Tj}
SYMBOL ind2 -832 320 R270
WINDOW 0 32 56 VTop 2
WINDOW 3 5 56 VBottom 2
SYMATTR InstName L1
SYMATTR Value 1m
SYMATTR Type ind
SYMBOL ind2 -1024 416 R180
WINDOW 0 36 80 Left 2
WINDOW 3 36 40 Left 2
SYMATTR InstName L2
SYMATTR Value 0.5m
SYMATTR Type ind
SYMBOL res -1056 400 R0
SYMATTR InstName R1
SYMATTR Value {RL}
SYMBOL cap -928 336 R0
SYMATTR InstName C1
SYMATTR Value 2.2µ
SYMBOL res -928 384 R0
SYMATTR InstName R12
SYMATTR Value 20
SYMBOL Cree\ Mosfet\\nmos_TO247_3L -480 192 R0
WINDOW 0 -41 47 Left 2
SYMATTR Value C2M0025120D
SYMATTR InstName U6
SYMBOL Cree\ Mosfet\\nmos_TO247_3L -464 464 R0
WINDOW 3 9 -26 Invisible 2
WINDOW 0 -40 42 Left 2
SYMATTR Value C2M0025120D
SYMATTR InstName U3
SYMBOL Cree\ Mosfet\\nmos_TO247_3L -144 208 R0
WINDOW 3 9 -26 Invisible 2
WINDOW 0 -29 30 Left 2
SYMATTR Value C2M0025120D
SYMATTR InstName U4
SYMBOL Cree\ Mosfet\\nmos_TO247_3L -144 464 R0
WINDOW 3 9 -26 Invisible 2
WINDOW 0 -33 34 Left 2
SYMATTR Value C2M0025120D
SYMATTR InstName U5
SYMBOL res -1440 864 R0
SYMATTR InstName R5
SYMATTR Value 10
SYMBOL e -1296 784 R0
SYMATTR InstName E1
SYMATTR Value 1
SYMBOL Comparators\\LTC6752 -1200 944 R0
WINDOW 3 -40 157 Left 2
SYMATTR InstName U7
SYMBOL res -1040 992 R90
WINDOW 0 0 56 VBottom 2
WINDOW 3 32 56 VTop 2
SYMATTR InstName R8
SYMATTR Value 10
SYMBOL e -976 976 R0
SYMATTR InstName E4
SYMATTR Value 1
SYMBOL res -1312 688 R0
SYMATTR InstName R9
SYMATTR Value 2.5
SYMBOL res -992 880 R0
SYMATTR InstName R14
SYMATTR Value 2.5
SYMBOL res -1264 976 R90
WINDOW 0 0 56 VBottom 2
WINDOW 3 32 56 VTop 2
SYMATTR InstName R15
SYMATTR Value 10
SYMBOL Comparators\\LTC6752 -176 1008 R0
SYMATTR InstName U8
SYMBOL voltage -544 1072 R0
WINDOW 3 -218 131 Left 2
WINDOW 123 0 0 Left 2
WINDOW 39 0 0 Left 2
SYMATTR Value PULSE({-Vr} {Vr} 0 {Ts/2} {Ts/2} 0 {Ts})
SYMATTR InstName V6
SYMBOL res -192 1072 R90
WINDOW 0 0 56 VBottom 2
WINDOW 3 32 56 VTop 2
SYMATTR InstName R6
SYMATTR Value 2.5
SYMBOL res -384 1040 R90
WINDOW 0 0 56 VBottom 2
WINDOW 3 32 56 VTop 2
SYMATTR InstName R7
SYMATTR Value 2.5
SYMBOL res -80 944 R0
SYMATTR InstName R10
SYMATTR Value 10
SYMBOL e 64 864 R0
SYMATTR InstName E2
SYMATTR Value 1
SYMBOL Comparators\\LTC6752 160 1024 R0
WINDOW 3 -40 157 Left 2
SYMATTR InstName U9
SYMBOL res 320 1072 R90
WINDOW 0 0 56 VBottom 2
WINDOW 3 32 56 VTop 2
SYMATTR InstName R13
SYMATTR Value 10
SYMBOL e 384 1056 R0
SYMATTR InstName E3
SYMATTR Value 1
SYMBOL res 48 768 R0
SYMATTR InstName R16
SYMATTR Value 2.5
SYMBOL res 368 960 R0
SYMATTR InstName R17
SYMATTR Value 2.5
SYMBOL res 96 1056 R90
WINDOW 0 0 56 VBottom 2
WINDOW 3 32 56 VTop 2
SYMATTR InstName R18
SYMATTR Value 10
TEXT -2176 176 Left 2 !.model MY SW(Ron=0.1 Roff=10Meg Vt=0.5 Vh=-.4)
TEXT -2184 784 Left 2 !.tran 0 50m 0 50u
TEXT -2176 136 Left 2 !.lib C:\\Program Files (x86)\\LTC\\LTspiceIV\\lib\\C2M0025120D - Packaged.lib
TEXT -920 128 Left 2 ;Vin = 480Vdc Vo = 230Vac @60Hz Po = 7.5KW  fsw = 50KHz
TEXT -2176 216 Left 2 !.options Gmin=1e-7 Abstol=1e-7 reltol=1e-3 chgtol=1e-10
TEXT -1920 312 Left 2 ;Notes:\n1) It is the customer's responsibility to operation in the actual prototype.\n2) Modifying circuit may affect the performance of the design.\nCopyright © 2016 Wolfspeed Inc. All rights reserved.
TEXT -2184 312 Left 2 !.param Vin = 480\n.param Vo = 230\n.param Po = 7.5K\n.param fsw = 50K\n.param fl = 60\n.param Tj = 112\n.param Vp = 20\n.param Vn = -4
TEXT -2192 632 Left 2 !.param Vs = Vo*1.414*Vr/Vin\n.param Vr = 5\n.param Ts = 1/fsw\n.param RL = Vo*Vo/Po
TEXT -2192 592 Left 2 ;Configuration
TEXT -2184 264 Left 2 ;Enter your specification here
