Version 4
SHEET 1 1300 1608
WIRE -288 128 -656 128
WIRE 48 128 -288 128
WIRE -656 160 -656 128
WIRE -608 192 -624 192
WIRE -288 192 -288 128
WIRE -240 224 -256 224
WIRE 48 240 48 128
WIRE -1056 272 -1136 272
WIRE -1008 272 -1056 272
WIRE -912 272 -1008 272
WIRE -800 272 -832 272
WIRE -1136 288 -1136 272
WIRE -800 288 -800 272
WIRE -656 288 -800 288
WIRE -1008 304 -1008 272
WIRE 48 320 48 240
WIRE -656 336 -656 288
WIRE -288 352 -288 320
WIRE -1136 384 -1136 368
WIRE -288 384 -288 352
WIRE -288 384 -816 384
WIRE -656 416 -656 336
WIRE -288 432 -288 384
WIRE -608 448 -624 448
WIRE -240 464 -256 464
WIRE -1136 480 -1136 464
WIRE -1008 480 -1008 448
WIRE -1008 480 -1136 480
WIRE -816 480 -816 384
WIRE -816 480 -1008 480
WIRE -656 608 -656 544
WIRE -288 608 -288 560
WIRE -288 608 -656 608
WIRE -96 608 -288 608
WIRE 48 608 48 400
WIRE 48 608 -96 608
WIRE -96 624 -96 608
WIRE -416 784 -416 768
WIRE -464 800 -544 800
WIRE -544 864 -544 800
WIRE -320 864 -320 848
WIRE -48 912 -48 896
WIRE -1648 928 -1648 912
WIRE -672 944 -672 928
WIRE -944 960 -1008 960
WIRE -704 960 -864 960
WIRE -320 960 -320 944
WIRE -1456 976 -1456 960
WIRE -544 976 -544 944
WIRE -544 976 -640 976
WIRE -480 976 -544 976
WIRE -368 976 -400 976
WIRE -1008 992 -1008 960
WIRE -784 992 -832 992
WIRE -48 1008 -48 992
WIRE -1648 1024 -1648 1008
WIRE -1584 1024 -1648 1024
WIRE -832 1024 -832 992
WIRE -672 1024 -672 1008
WIRE -96 1024 -176 1024
WIRE -1648 1040 -1648 1024
WIRE -1456 1072 -1456 1056
WIRE -176 1088 -176 1024
WIRE 48 1104 48 1088
WIRE -1648 1136 -1648 1120
WIRE -832 1136 -832 1104
WIRE -304 1184 -304 1168
WIRE -544 1200 -544 976
WIRE -480 1200 -544 1200
WIRE -336 1200 -400 1200
WIRE 48 1200 48 1184
WIRE -176 1216 -176 1168
WIRE -176 1216 -272 1216
WIRE -112 1216 -176 1216
WIRE 0 1216 -32 1216
WIRE -304 1264 -304 1248
FLAG 48 240 IN
IOPIN 48 240 In
FLAG -96 624 0
FLAG -832 1136 0
FLAG -1584 1024 0
FLAG -1648 912 V+
FLAG -1648 1136 V-
FLAG -672 1024 V-
FLAG -1008 1072 0
FLAG -656 336 Ha
FLAG -288 352 Hb
FLAG -368 272 g3
FLAG -736 496 g2
FLAG -736 240 g1
FLAG -368 512 g4
FLAG -1456 1072 0
FLAG -1456 960 Tj
FLAG -608 192 Tj
FLAG -608 448 Tj
FLAG -240 224 Tj
FLAG -240 464 Tj
FLAG -464 848 0
FLAG -416 864 0
FLAG -368 1024 0
FLAG -320 1040 Ha
FLAG -320 848 g1
FLAG -416 688 g4
FLAG -672 928 V+
FLAG -304 1264 V-
FLAG -96 1072 0
FLAG -48 1088 0
FLAG 0 1264 0
FLAG 48 1280 Hb
FLAG 48 1088 g3
FLAG -48 896 g2
FLAG -304 1168 V+
FLAG -336 1232 0
FLAG -1056 272 OUT
SYMBOL voltage 48 304 R0
WINDOW 123 24 124 Left 2
WINDOW 39 24 152 Left 2
SYMATTR InstName V17
SYMATTR Value {Vin}
SYMBOL Comparators\\LTC6752 -672 912 R0
WINDOW 3 -40 157 Left 2
SYMATTR InstName U11
SYMBOL voltage -832 1008 R0
WINDOW 3 -66 167 Left 2
WINDOW 123 0 0 Left 2
WINDOW 39 0 0 Left 2
SYMATTR Value SINE(0 {Vs} {fl} 0 0 0)
SYMATTR InstName V1
SYMBOL voltage -1008 976 R0
WINDOW 3 -270 57 Left 2
WINDOW 123 0 0 Left 2
WINDOW 39 0 0 Left 2
SYMATTR Value PULSE({-Vr} {Vr} 0 {Ts/2} {Ts/2} 0 {Ts})
SYMATTR InstName V2
SYMBOL res -688 976 R90
WINDOW 0 0 56 VBottom 2
WINDOW 3 32 56 VTop 2
SYMATTR InstName R3
SYMATTR Value 10
SYMBOL res -848 944 R90
WINDOW 0 0 56 VBottom 2
WINDOW 3 32 56 VTop 2
SYMATTR InstName R4
SYMATTR Value 10
SYMBOL voltage -1648 912 R0
WINDOW 3 38 54 Left 2
SYMATTR Value {Vp}
SYMATTR InstName V3
SYMBOL voltage -1648 1136 R180
WINDOW 0 24 96 Left 2
WINDOW 3 24 16 Left 2
SYMATTR InstName V4
SYMATTR Value {Vn}
SYMBOL ind2 -816 288 M270
WINDOW 0 32 56 VTop 2
WINDOW 3 5 56 VBottom 2
SYMATTR InstName L1
SYMATTR Value 1m
SYMATTR Type ind
SYMBOL res -1152 368 R0
SYMATTR InstName R1
SYMATTR Value {RL}
SYMBOL cap -1024 304 R0
SYMATTR InstName C1
SYMATTR Value 2.2µ
SYMBOL ind2 -1152 272 R0
SYMATTR InstName L2
SYMATTR Value 0.5m
SYMATTR Type ind
SYMBOL res -1024 352 R0
SYMATTR InstName R2
SYMATTR Value 20
SYMBOL voltage -1456 960 R0
WINDOW 3 38 54 Left 2
SYMATTR Value 112
SYMATTR InstName V9
SYMBOL Cree\ Mosfet\\nmos_TO247_3L -336 496 R0
SYMATTR Value C2M0025120D
SYMATTR InstName U4
SYMBOL Cree\ Mosfet\\nmos_TO247_3L -336 256 R0
WINDOW 3 9 -26 Invisible 2
SYMATTR Value C2M0025120D
SYMATTR InstName U3
SYMBOL Cree\ Mosfet\\nmos_TO247_3L -704 224 R0
WINDOW 3 9 -26 Invisible 2
SYMATTR Value C2M0025120D
SYMATTR InstName U1
SYMBOL Cree\ Mosfet\\nmos_TO247_3L -704 480 R0
WINDOW 3 9 -26 Invisible 2
SYMATTR Value C2M0025120D
SYMATTR InstName U2
SYMBOL res -560 848 R0
SYMATTR InstName R5
SYMATTR Value 10
SYMBOL res -384 960 R90
WINDOW 0 0 56 VBottom 2
WINDOW 3 32 56 VTop 2
SYMATTR InstName R7
SYMATTR Value 10
SYMBOL e -416 768 R0
SYMATTR InstName E1
SYMATTR Value 1
SYMBOL e -320 944 R0
SYMATTR InstName E2
SYMATTR Value 1
SYMBOL Comparators\\LTC6752 -304 1152 R0
WINDOW 3 -40 157 Left 2
SYMATTR InstName U5
SYMBOL res -192 1072 R0
SYMATTR InstName R9
SYMATTR Value 10
SYMBOL res -16 1200 R90
WINDOW 0 0 56 VBottom 2
WINDOW 3 32 56 VTop 2
SYMATTR InstName R10
SYMATTR Value 10
SYMBOL e -48 992 R0
SYMATTR InstName E3
SYMATTR Value 1
SYMBOL e 48 1184 R0
SYMATTR InstName E4
SYMATTR Value 1
SYMBOL res -432 672 R0
SYMATTR InstName R11
SYMATTR Value 2.5
SYMBOL res -336 848 R0
SYMATTR InstName R12
SYMATTR Value 2.5
SYMBOL res -64 896 R0
SYMATTR InstName R13
SYMATTR Value 2.5
SYMBOL res 32 1088 R0
SYMATTR InstName R14
SYMATTR Value 2.5
SYMBOL res -384 1184 R90
WINDOW 0 0 56 VBottom 2
WINDOW 3 32 56 VTop 2
SYMATTR InstName R6
SYMATTR Value 10
TEXT -1752 136 Left 2 !.model MYSW SW(Ron=0.1 Roff=10Meg Vt=0.5 Vh=-.4)
TEXT -1672 800 Left 2 !.tran 0 0.1 0 50u
TEXT -816 80 Left 2 ;Vin = 480Vdc Vo = 230Vac @60Hz Po = 7.5KW  fsw = 50KHz
TEXT -1744 96 Left 2 !.lib C:\\Program Files (x86)\\LTC\\LTspiceIV\\lib\\C2M0025120D - Packaged.lib
TEXT -1744 208 Left 2 !.options Noopiter
TEXT -1752 168 Left 2 !.options Gmin=1e-7 Abstol=1e-7 reltol=1e-3 chgtol=1e-10
TEXT -1728 1232 Left 2 ;Notes:\n1) It is the customer's responsibility to operation in the actual prototype.\n2) Modifying circuit may affect the performance of the design.\nCopyright © 2016 Wolfspeed Inc. All rights reserved.
TEXT -1664 312 Left 2 !.param Vin = 480\n.param Vo = 230\n.param Po = 7.5K\n.param fsw = 50K\n.param fl = 60\n.param Tj = 112\n.param Vp = 20\n.param Vn = -4
TEXT -1664 656 Left 2 !.param Vs = Vo*1.414*Vr/Vin\n.param Vr = 5\n.param Ts = 1/fsw\n.param RL = Vo*Vo/Po
TEXT -1664 600 Left 2 ;Configuration
TEXT -1656 272 Left 2 ;Enter your specification here
