Version 4
SHEET 1 1364 680
WIRE -736 -64 -784 -64
WIRE -688 -64 -736 -64
WIRE -400 -64 -608 -64
WIRE -176 -64 -400 -64
WIRE 32 -64 -144 -64
WIRE 144 -64 32 -64
WIRE -400 -48 -400 -64
WIRE -784 -16 -784 -64
WIRE -144 -16 -144 -64
WIRE 32 0 32 -64
WIRE 32 0 -32 0
WIRE -176 16 -176 -64
WIRE -144 16 -176 16
WIRE -576 32 -608 32
WIRE -448 32 -496 32
WIRE 32 32 32 0
WIRE 144 32 144 -64
WIRE -784 192 -784 64
WIRE -608 192 -608 112
WIRE -608 192 -784 192
WIRE -592 192 -608 192
WIRE -448 192 -448 64
WIRE -448 192 -592 192
WIRE -432 192 -432 64
WIRE -432 192 -448 192
WIRE -416 192 -416 64
WIRE -416 192 -432 192
WIRE -400 192 -400 64
WIRE -400 192 -416 192
WIRE -384 192 -384 64
WIRE -384 192 -400 192
WIRE -368 192 -368 64
WIRE -368 192 -384 192
WIRE 32 192 32 96
WIRE 32 192 -368 192
WIRE 144 192 144 112
WIRE 144 192 32 192
WIRE -592 208 -592 192
FLAG -592 208 0
FLAG 144 -64 OUT
FLAG -736 -64 IN
SYMBOL voltage -784 -32 R0
WINDOW 123 0 0 Left 2
WINDOW 39 0 0 Left 2
WINDOW 3 -166 110 Left 2
SYMATTR Value EXP(100 120 0 100u 1)
SYMATTR InstName Vin
SYMBOL ind -704 -48 R270
WINDOW 0 39 70 VTop 2
WINDOW 3 5 56 VBottom 2
SYMATTR InstName L1
SYMATTR Value 0.5m
SYMATTR SpiceLine Rser=0
SYMBOL cap 16 32 R0
SYMATTR InstName C1
SYMATTR Value 200µ
SYMBOL Misc\\signal -608 16 R0
WINDOW 0 -19 -7 Top 2
WINDOW 3 -1 138 Bottom 2
WINDOW 123 0 0 Left 2
WINDOW 39 -60 56 VBottom 2
SYMATTR InstName J1
SYMATTR Value PULSE(-3 15 0 1n 1n {D*Ts} {Ts})
SYMBOL res 128 16 R0
SYMATTR InstName R1
SYMATTR Value 28.8
SYMBOL CreeDiodes\\C4D20120A -80 0 R0
WINDOW 3 -66 72 Left 2
SYMATTR InstName U4
SYMBOL res -480 16 R90
WINDOW 0 0 56 VBottom 2
WINDOW 3 36 44 VTop 2
SYMATTR InstName R2
SYMATTR Value 2.5
SYMBOL Cree\ Mosfet\\nmos7 -448 -48 R0
SYMATTR InstName M1
SYMATTR Value C3M0065090J
SYMATTR Prefix X
TEXT -944 -240 Left 2 !.param D = 0.5
TEXT -944 -208 Left 2 !.param Ts = 10u
TEXT -944 -320 Left 2 !.lib C:\\Program Files (x86)\\LTC\\LTspiceIV\\lib\\Cree Power C4D Packaged SPICE Model Library.lib
TEXT -944 -280 Left 2 !.lib "C:\\Program Files (x86)\\LTC\\LTspiceIV\\lib\\C3M0065090x_model_library_1p0.lib"
TEXT -944 -168 Left 2 !.tran 0 0.045 8m
TEXT -536 -136 Left 2 ;Vin = 120Vdc Vo = 240Vdc Po = 2KW  fsw = 100KHz
TEXT -944 -352 Left 2 !.lib C:\\Program Files (x86)\\LTC\\LTspiceIV\\lib\\Cree Power CPW4 Bare Die SPICE Model Library.lib
TEXT -944 -384 Left 2 !.options Gmin=1e-7 Abstol=1e-7 reltol=1e-2 chgtol=1e-9
TEXT -968 -88 Left 2 !.IC V(OUT)=220
TEXT -912 232 Left 2 ;Notes:\n1) It is the customer's responsibility to operation in the actual prototype.\n2) Modifying circuit may affect the performance of the design.\nCopyright © 2016 Wolfspeed Inc. All rights reserved.
