Version 4
SHEET 1 880 680
WIRE -576 -144 -864 -144
WIRE -576 -128 -576 -144
WIRE -624 -48 -656 -48
WIRE -864 -16 -864 -144
WIRE -736 -16 -736 -48
WIRE -624 0 -624 -16
WIRE -608 0 -608 -16
WIRE -608 0 -624 0
WIRE -592 0 -592 -16
WIRE -592 0 -608 0
WIRE -576 0 -576 -16
WIRE -576 0 -592 0
WIRE -560 0 -560 -16
WIRE -560 0 -576 0
WIRE -544 0 -544 -16
WIRE -544 0 -560 0
WIRE -384 0 -544 0
WIRE -272 0 -384 0
WIRE -112 0 -160 0
WIRE -272 16 -272 0
WIRE -112 32 -112 0
WIRE -32 32 -112 32
WIRE 0 32 -32 32
WIRE -272 48 -272 16
WIRE -160 48 -160 32
WIRE -160 48 -272 48
WIRE -864 80 -864 -16
WIRE -736 80 -736 64
WIRE -608 80 -608 0
WIRE -608 80 -736 80
WIRE -384 96 -384 0
WIRE -112 96 -112 32
WIRE 0 96 0 32
WIRE -864 256 -864 160
WIRE -672 256 -864 256
WIRE -384 256 -384 176
WIRE -384 256 -672 256
WIRE -112 256 -112 160
WIRE -112 256 -384 256
WIRE 0 256 0 176
WIRE 0 256 -112 256
WIRE -672 272 -672 256
FLAG -672 272 0
FLAG -32 32 OUT
FLAG -864 -16 IN
SYMBOL voltage -864 64 R0
WINDOW 123 0 0 Left 2
WINDOW 39 0 0 Left 2
WINDOW 0 -54 8 Left 2
WINDOW 3 -94 114 Left 2
SYMATTR InstName Vin
SYMATTR Value EXP(50 120 0 100u 1)
SYMBOL ind -400 80 R0
SYMATTR InstName L1
SYMATTR Value 0.5m
SYMATTR SpiceLine Rser=0 Rpar=0
SYMBOL cap -128 96 R0
SYMATTR InstName C1
SYMATTR Value 200µ
SYMATTR SpiceLine Rser=0
SYMBOL Misc\\signal -736 -32 R0
WINDOW 0 32 56 VTop 2
WINDOW 3 122 152 Bottom 2
WINDOW 123 0 0 Left 2
WINDOW 39 28 -173 VBottom 2
SYMATTR InstName J1
SYMATTR Value PULSE(-3 15 0 1n 1n {D*Ts} {Ts})
SYMBOL res -16 80 R0
SYMATTR InstName R1
SYMATTR Value 28.8
SYMBOL CreeDiodes\\C4D20120A -224 16 R180
WINDOW 3 -96 67 Left 2
SYMATTR InstName U1
SYMBOL res -640 -64 R90
WINDOW 3 32 56 VTop 2
WINDOW 0 0 56 VBottom 2
SYMATTR Value 2.5
SYMATTR InstName R2
SYMBOL Cree\ Mosfet\\nmos7 -624 -128 R0
SYMATTR InstName M1
SYMATTR Value C3M0065090J
SYMATTR Prefix X
TEXT -952 -280 Left 2 !.param D = 0.667
TEXT -952 -240 Left 2 !.param Ts = 10u
TEXT -944 -408 Left 2 !.lib C:\\Program Files (x86)\\LTC\\LTspiceIV\\lib\\Cree Power C4D Packaged SPICE Model Library.lib
TEXT -944 -448 Left 2 !.lib "C:\\Program Files (x86)\\LTC\\LTspiceIV\\lib\\C3M0065090x_model_library_1p0.lib"
TEXT -952 -200 Left 2 !.tran 0 0.05 5m
TEXT -440 -160 Left 2 ;Vin = 120Vdc Vo = 240Vdc Po = 2000W  fsw = 100KHz
TEXT -952 -360 Left 2 !.lib C:\\Program Files (x86)\\LTC\\LTspiceIV\\lib\\Cree Power CPW4 Bare Die SPICE Model Library.lib
TEXT -952 -320 Left 2 !.options Gmin=1e-7 Abstol=1e-7 reltol=1e-2 chgtol=1e-9
TEXT -632 -280 Left 2 !.IC V(OUT)=-230
TEXT -904 344 Left 2 ;Notes:\n1) It is the customer's responsibility to operation in the actual prototype.\n2) Modifying circuit may affect the performance of the design.\nCopyright © 2016 Wolfspeed Inc. All rights reserved.
