Version 4
SHEET 1 1712 1404
WIRE 144 -176 32 -176
WIRE 208 -176 144 -176
WIRE 256 -176 208 -176
WIRE 304 -176 256 -176
WIRE 208 -128 208 -176
WIRE 304 -128 304 -176
WIRE 144 -16 144 -176
WIRE 192 -16 144 -16
WIRE 256 -16 256 -176
WIRE 288 -16 256 -16
WIRE 656 0 448 0
WIRE 224 16 224 -16
WIRE 304 16 224 16
WIRE 320 16 320 -16
WIRE 320 16 304 16
WIRE 448 80 448 0
WIRE 512 80 448 80
WIRE 656 80 656 0
WIRE 656 80 624 80
WIRE 688 80 656 80
WIRE 752 80 688 80
WIRE 912 80 752 80
WIRE 1072 80 992 80
WIRE 1104 80 1072 80
WIRE 1248 80 1104 80
WIRE -80 112 -256 112
WIRE 32 112 32 -176
WIRE 32 112 -80 112
WIRE 224 112 32 112
WIRE 512 112 432 112
WIRE 1248 112 1248 80
WIRE 224 128 224 112
WIRE 304 128 304 16
WIRE 1104 128 1104 80
WIRE 432 144 432 112
WIRE 752 192 752 176
WIRE 688 208 688 80
WIRE 752 208 752 192
WIRE 752 208 688 208
WIRE -256 224 -256 112
WIRE 784 224 784 192
WIRE 784 224 432 224
WIRE 1104 224 1104 192
WIRE 1104 224 784 224
WIRE 1248 224 1248 192
WIRE 1248 224 1104 224
WIRE -80 240 -80 112
WIRE 224 240 224 208
WIRE 64 320 32 320
WIRE 176 320 144 320
WIRE -256 448 -256 304
WIRE -80 448 -80 304
WIRE -80 448 -256 448
WIRE 32 448 32 400
WIRE 32 448 -80 448
WIRE 176 448 176 352
WIRE 176 448 32 448
WIRE 192 448 192 352
WIRE 192 448 176 448
WIRE 208 448 208 352
WIRE 208 448 192 448
WIRE 224 448 224 352
WIRE 224 448 208 448
WIRE 240 448 240 352
WIRE 240 448 224 448
WIRE 256 448 256 352
WIRE 256 448 240 448
WIRE 304 448 304 208
WIRE 304 448 256 448
WIRE -80 496 -80 448
FLAG -80 496 0
FLAG 1072 80 +12V
FLAG 1248 224 0
SYMBOL Cree\ Mosfet\\nmos7 176 240 R0
WINDOW 3 -145 6 Left 2
SYMATTR Value C3M0065090J
SYMATTR InstName M1
SYMATTR Prefix X
SYMBOL ind2 240 224 R180
WINDOW 0 36 80 Left 2
WINDOW 3 39 49 Left 2
SYMATTR InstName L1
SYMATTR Value 70.55µ
SYMATTR Type ind
SYMBOL ind2 448 240 R180
WINDOW 0 -28 78 Left 2
WINDOW 3 -49 45 Left 2
SYMATTR InstName L2
SYMATTR Value 4.8µ
SYMATTR Type ind
SYMBOL cap -96 240 R0
SYMATTR InstName C1
SYMATTR Value 630µ
SYMBOL cap 1088 128 R0
SYMATTR InstName C2
SYMATTR Value 360µ
SYMBOL voltage -256 208 R0
SYMATTR InstName V1
SYMATTR Value 115
SYMBOL res 1232 96 R0
SYMATTR InstName R1
SYMATTR Value 0.288
SYMBOL res 160 304 R90
WINDOW 0 0 56 VBottom 2
WINDOW 3 32 56 VTop 2
SYMATTR InstName R6
SYMATTR Value 2.5
SYMBOL voltage 32 304 R0
WINDOW 3 -64 176 Left 2
SYMATTR Value PULSE(-3 15 0 1n 1n {D*Ts} {Ts})
SYMATTR InstName V2
SYMBOL ind2 288 112 R0
SYMATTR InstName L3
SYMATTR Value 70.55µ
SYMATTR Type ind
SYMBOL ind2 1008 96 M270
WINDOW 0 32 56 VTop 2
WINDOW 3 5 56 VBottom 2
SYMATTR InstName L4
SYMATTR Value 25µ
SYMATTR Type ind
SYMBOL Cree\ Diode\\C5D50065D 752 128 R270
WINDOW 3 -88 75 Left 2
SYMATTR InstName U3
SYMBOL Cree\ Diode\\C5D50065D 576 80 R0
WINDOW 3 -37 63 Left 2
SYMATTR InstName U4
SYMBOL Cree\ Diode\\C3D08060A 208 -80 R270
WINDOW 3 11 59 Invisible 2
SYMATTR InstName U1
SYMBOL Cree\ Diode\\C3D08060A 304 -80 R270
SYMATTR InstName U2
TEXT -832 -184 Left 2 !.param Ts = 10u\n.param D = 0.455
TEXT -824 -256 Left 2 !.lib "C:\\Program Files (x86)\\LTC\\LTspiceIV\\lib\\C3M0065090x_model_library_1p0.lib"
TEXT 48 88 Left 2 !K1 L1 L2 L3 1.
TEXT -832 -320 Left 2 !.lib "C:\\Program Files (x86)\\LTC\\LTspiceIV\\lib\\Cree Power C5D CVFD Packaged SPICE Model Library.lib\n.lib "C:\\Program Files (x86)\\LTC\\LTspiceIV\\lib\\Cree Power C3D Packaged SPICE Model Library.lib
TEXT -824 -224 Left 2 !.options Gmin=1e-7 Abstol=1e-7 reltol=1e-2 chgtol=1e-9
TEXT -840 552 Left 2 ;Notes:\n1) It is the customer's responsibility to operation in the actual prototype.\n2) Modifying circuit may affect the performance of the design.\nCopyright © 2016 Wolfspeed Inc. All rights reserved.
TEXT -840 -88 Left 2 !.options Noopiter
TEXT -832 -40 Left 2 !.IC V(+12V)=11
TEXT 392 -216 Left 2 ;Vin = 115Vdc, Vout = 12Vdc, Fsw = 100KHz Po = 500W
TEXT -832 -128 Left 2 !.tran 0.005
