Version 4
SHEET 1 1300 680
WIRE -688 -112 -848 -112
WIRE -560 -112 -688 -112
WIRE -560 -80 -560 -112
WIRE -496 -48 -528 -48
WIRE -496 0 -528 0
WIRE -464 48 -560 48
WIRE -448 48 -464 48
WIRE -416 48 -448 48
WIRE -352 48 -416 48
WIRE -320 48 -352 48
WIRE -256 48 -256 32
WIRE -256 48 -320 48
WIRE -176 48 -176 32
WIRE -96 48 -176 48
WIRE -16 48 -96 48
WIRE 16 48 -16 48
WIRE -640 112 -640 80
WIRE -608 112 -640 112
WIRE -464 112 -464 48
WIRE -464 112 -528 112
WIRE -320 112 -320 48
WIRE -256 112 -320 112
WIRE -224 112 -256 112
WIRE -96 112 -96 48
WIRE 16 112 16 48
WIRE -848 128 -848 -112
WIRE -416 144 -416 48
WIRE -320 160 -320 112
WIRE -224 160 -224 112
WIRE -448 256 -448 48
WIRE -432 256 -448 256
WIRE -352 272 -352 48
WIRE -336 272 -352 272
WIRE -256 272 -256 112
WIRE -240 272 -256 272
WIRE -848 304 -848 208
WIRE -656 304 -848 304
WIRE -400 304 -400 256
WIRE -400 304 -656 304
WIRE -304 304 -304 272
WIRE -304 304 -400 304
WIRE -208 304 -208 272
WIRE -208 304 -304 304
WIRE -96 304 -96 176
WIRE -96 304 -208 304
WIRE 16 304 16 192
WIRE 16 304 -96 304
WIRE -656 320 -656 304
FLAG -656 320 0
FLAG -16 48 OUT
IOPIN -16 48 Out
FLAG -688 -112 IN
IOPIN -688 -112 In
FLAG 256 -48 0
FLAG 112 -48 0
FLAG -496 -48 Tj
FLAG 112 -128 Tj
FLAG -496 0 Tc
FLAG 256 -128 Tc
SYMBOL voltage -848 112 R0
WINDOW 123 0 0 Left 2
WINDOW 39 0 0 Left 2
WINDOW 0 -49 5 Left 2
WINDOW 3 -49 102 Left 2
SYMATTR InstName Vin
SYMATTR Value 400
SYMBOL ind -272 48 R270
WINDOW 0 32 56 VTop 2
WINDOW 3 5 56 VBottom 2
SYMATTR InstName L1
SYMATTR Value 0.5m
SYMATTR SpiceLine Rser=0 Rpar=0
SYMBOL cap -112 112 R0
SYMATTR InstName C1
SYMATTR Value 200µ
SYMBOL Misc\\signal -624 112 R270
WINDOW 0 21 92 VTop 2
WINDOW 3 -34 35 Invisible 2
WINDOW 123 0 0 Left 2
WINDOW 39 -60 56 VBottom 2
SYMATTR InstName J1
SYMATTR Value PULSE(-5 20 0 1n 1n {D*Ts} {Ts})
SYMBOL res 0 96 R0
SYMATTR InstName R1
SYMATTR Value 2.88
SYMBOL Cree\ Mosfet\\power_nmos_heat -608 -16 R0
WINDOW 3 227 -7 Right 2
SYMATTR Value C2M0025120D
SYMATTR InstName U2
SYMBOL voltage 256 -144 R0
SYMATTR InstName V1
SYMATTR Value 90
SYMBOL CreeDiodes\\C4D20120A -416 192 R270
WINDOW 3 11 59 Invisible 2
SYMATTR InstName U1
SYMBOL CreeDiodes\\C4D20120A -320 208 R270
WINDOW 3 11 59 Invisible 2
SYMATTR InstName U3
SYMBOL CreeDiodes\\C4D20120A -224 208 R270
WINDOW 3 -88 64 Left 2
SYMATTR InstName U4
SYMBOL voltage 112 -144 R0
SYMATTR InstName V2
SYMATTR Value 108
SYMBOL res -656 -16 R0
WINDOW 0 -36 36 Left 2
WINDOW 3 -36 70 Left 2
SYMATTR InstName R2
SYMATTR Value 2.5
TEXT -952 -240 Left 2 !.param D = 0.3
TEXT -952 -200 Left 2 !.param Ts = 10u
TEXT -952 -312 Left 2 !.lib C:\\Program Files (x86)\\LTC\\LTspiceIV\\lib\\Cree Power C4D Packaged SPICE Model Library.lib
TEXT -952 -280 Left 2 !.lib C:\\Program Files (x86)\\LTC\\LTspiceIV\\lib\\C2M0025120D - Packaged.lib
TEXT -952 -160 Left 2 !.tran 0.02
TEXT -584 -176 Left 2 ;Vin = 400Vdc Vo = 120Vdc Po = 5000W  fsw = 100KHz
TEXT -952 -352 Left 2 !.inc C:\\Program Files (x86)\\LTC\\LTspiceIV\\lib\\Cree Power CPW4 Bare Die SPICE Model Library.lib
TEXT -976 352 Left 2 ;Notes:\n1) It is the customer's responsibility to operation in the actual prototype.\n2) Modifying circuit may affect the performance of the design.\nCopyright © 2016 Wolfspeed Inc. All rights reserved.
TEXT -944 -392 Left 2 !.options Gmin=1e-7 Abstol=1e-7 reltol=1e-2 chgtol=1e-9
