Version 4
SHEET 1 1712 1404
WIRE 592 -288 416 -288
WIRE 416 -272 416 -288
WIRE 592 -256 592 -288
WIRE 592 -256 528 -256
WIRE 704 -256 592 -256
WIRE 416 -240 336 -240
WIRE 608 -192 416 -192
WIRE 416 -176 416 -192
WIRE 608 -176 608 -192
WIRE 608 -176 528 -176
WIRE 704 -176 704 -256
WIRE 704 -176 608 -176
WIRE 608 -160 608 -176
WIRE 608 -160 528 -160
WIRE 336 -144 336 -240
WIRE 416 -144 336 -144
WIRE 592 -96 416 -96
WIRE 416 -80 416 -96
WIRE 592 -80 592 -96
WIRE 592 -80 528 -80
WIRE 672 -80 592 -80
WIRE 704 -80 704 -176
WIRE 704 -80 672 -80
WIRE 848 -80 704 -80
WIRE 592 -64 592 -80
WIRE 592 -64 528 -64
WIRE 336 -48 336 -144
WIRE 416 -48 336 -48
WIRE 848 -48 848 -80
WIRE 704 -32 704 -80
WIRE 336 -16 336 -48
WIRE -80 16 -256 16
WIRE 224 16 -80 16
WIRE 224 32 224 16
WIRE 704 64 704 32
WIRE 704 64 336 64
WIRE 848 64 848 32
WIRE 848 64 704 64
WIRE 624 80 432 80
WIRE 432 96 432 80
WIRE 624 112 624 80
WIRE 624 112 544 112
WIRE 672 112 624 112
WIRE 704 112 672 112
WIRE 864 112 704 112
WIRE -256 128 -256 16
WIRE 432 128 336 128
WIRE -80 144 -80 16
WIRE 224 144 224 112
WIRE 704 144 704 112
WIRE 704 208 336 208
WIRE 848 208 704 208
WIRE 864 208 864 192
WIRE 864 208 848 208
WIRE 64 224 32 224
WIRE 176 224 144 224
WIRE 704 256 336 256
WIRE 800 256 704 256
WIRE 848 256 800 256
WIRE 704 272 704 256
WIRE 592 288 448 288
WIRE 448 304 448 288
WIRE 448 336 336 336
WIRE 560 336 560 320
WIRE 592 336 592 288
WIRE 592 336 560 336
WIRE 704 336 592 336
WIRE 816 336 704 336
WIRE 848 336 816 336
WIRE -256 352 -256 208
WIRE -80 352 -80 208
WIRE -80 352 -256 352
WIRE 32 352 32 304
WIRE 32 352 -80 352
WIRE 176 352 176 256
WIRE 176 352 32 352
WIRE 192 352 192 256
WIRE 192 352 176 352
WIRE 208 352 208 256
WIRE 208 352 192 352
WIRE 224 352 224 256
WIRE 224 352 208 352
WIRE 240 352 240 256
WIRE 240 352 224 352
WIRE 256 352 256 256
WIRE 256 352 240 352
WIRE -80 400 -80 352
WIRE 624 400 448 400
WIRE 448 416 448 400
WIRE 624 432 624 400
WIRE 624 432 560 432
WIRE 720 432 624 432
WIRE 448 448 336 448
WIRE 640 480 448 480
WIRE 448 512 448 480
WIRE 640 528 640 480
WIRE 640 528 560 528
WIRE 672 528 640 528
WIRE 720 528 720 432
WIRE 720 528 672 528
WIRE 864 528 720 528
WIRE 336 544 336 448
WIRE 448 544 336 544
WIRE 864 560 864 528
WIRE 336 576 336 544
WIRE 720 592 720 528
WIRE 720 656 336 656
WIRE 864 656 864 640
WIRE 864 656 720 656
WIRE 592 688 432 688
WIRE 432 704 432 688
WIRE 592 720 592 688
WIRE 592 720 544 720
WIRE 720 720 592 720
WIRE 432 736 336 736
WIRE 624 784 432 784
WIRE 432 800 432 784
WIRE 624 816 624 784
WIRE 624 816 544 816
WIRE 672 816 624 816
WIRE 720 816 720 720
WIRE 720 816 672 816
WIRE 880 816 720 816
WIRE 336 832 336 736
WIRE 432 832 336 832
WIRE 720 848 720 816
WIRE 880 848 880 816
WIRE 336 864 336 832
WIRE 720 928 720 912
WIRE 880 928 720 928
WIRE 720 944 720 928
WIRE 720 944 336 944
FLAG -80 400 0
FLAG 672 -80 +12V
FLAG 672 112 +5Vsb
FLAG 816 336 -12V
FLAG 672 528 3.3V
FLAG 672 816 +5V
FLAG 848 64 0
FLAG 848 208 0
FLAG 800 256 0
FLAG 720 656 0
FLAG 720 944 0
SYMBOL Cree\ Mosfet\\nmos7 176 144 R0
WINDOW 3 -145 6 Left 2
SYMATTR Value C3M0065090J
SYMATTR InstName M1
SYMATTR Prefix X
SYMBOL ind2 240 128 R180
WINDOW 0 36 80 Left 2
WINDOW 3 39 49 Left 2
SYMATTR InstName L1
SYMATTR Value 70.55µ
SYMATTR Type ind
SYMBOL ind2 352 -32 M0
WINDOW 0 -37 40 Left 2
WINDOW 3 -74 67 Left 2
SYMATTR InstName L2
SYMATTR Value 1.728µ
SYMATTR Type ind
SYMBOL ind2 352 112 M0
WINDOW 0 -30 36 Left 2
WINDOW 3 -45 67 Left 2
SYMATTR InstName L3
SYMATTR Value 0.3µ
SYMATTR Type ind
SYMBOL ind2 352 352 R180
WINDOW 0 -31 80 Left 2
WINDOW 3 -67 51 Left 2
SYMATTR InstName L4
SYMATTR Value 1.728µ
SYMATTR Type ind
SYMBOL ind2 352 560 M0
WINDOW 0 -32 35 Left 2
WINDOW 3 -72 62 Left 2
SYMATTR InstName L5
SYMATTR Value 0.133µ
SYMATTR Type ind
SYMBOL ind2 352 848 M0
WINDOW 0 -29 31 Left 2
WINDOW 3 -49 59 Left 2
SYMATTR InstName L6
SYMATTR Value 0.3µ
SYMATTR Type ind
SYMBOL cap -96 144 R0
SYMATTR InstName C1
SYMATTR Value 630µ
SYMBOL cap 688 -32 R0
SYMATTR InstName C2
SYMATTR Value 760µ
SYMBOL cap 688 144 R0
SYMATTR InstName C3
SYMATTR Value 120µ
SYMBOL cap 688 272 R0
SYMATTR InstName C4
SYMATTR Value 8.33µ
SYMBOL cap 704 592 R0
SYMATTR InstName C5
SYMATTR Value 920µ
SYMBOL cap 704 848 R0
SYMATTR InstName C6
SYMATTR Value 400µ
SYMBOL voltage -256 112 R0
SYMATTR InstName V1
SYMATTR Value 115
SYMBOL Cree\ Diode\\C3D04060A 496 112 R0
SYMATTR InstName U4
SYMBOL Cree\ Diode\\C3D04060A 512 320 R0
WINDOW 3 -15 -38 Left 2
SYMATTR InstName U5
SYMBOL Cree\ Diode\\C3D10060A 512 432 R0
SYMATTR InstName U7
SYMBOL Cree\ Diode\\C3D10060A 512 528 R0
WINDOW 3 11 59 Invisible 2
SYMATTR InstName U8
SYMBOL Cree\ Diode\\C3D10060A 496 720 R0
SYMATTR InstName U10
SYMBOL Cree\ Diode\\C3D10060A 496 816 R0
WINDOW 0 7 36 Left 2
WINDOW 3 11 59 Invisible 2
SYMATTR InstName U11
SYMBOL res 832 -64 R0
SYMATTR InstName R1
SYMATTR Value 0.228
SYMBOL res 848 96 R0
SYMATTR InstName R2
SYMATTR Value 2
SYMBOL res 832 240 R0
SYMATTR InstName R3
SYMATTR Value 24
SYMBOL res 848 544 R0
SYMATTR InstName R4
SYMATTR Value 0.2178
SYMBOL res 864 832 R0
SYMATTR InstName R5
SYMATTR Value 0.5
SYMBOL res 160 208 R90
WINDOW 0 0 56 VBottom 2
WINDOW 3 32 56 VTop 2
SYMATTR InstName R6
SYMATTR Value 2.5
SYMBOL voltage 32 208 R0
WINDOW 3 -64 176 Left 2
SYMATTR Value PULSE(-3 15 0 1n 1n {D*Ts} {Ts})
SYMATTR InstName V2
SYMBOL Cree\ Diode\\C4D20120A 480 -256 R0
WINDOW 3 11 59 Invisible 2
SYMATTR InstName U2
SYMBOL Cree\ Diode\\C4D20120A 480 -160 R0
WINDOW 3 11 59 Invisible 2
SYMATTR InstName U6
SYMBOL Cree\ Diode\\C4D20120A 480 -64 R0
SYMATTR InstName U9
TEXT -896 -16 Left 2 !.param Ts = 10u\n.param D = 0.4
TEXT -904 -80 Left 2 !.lib "C:\\Program Files (x86)\\LTC\\LTspiceIV\\lib\\C3M0065090x_model_library_1p0.lib"
TEXT 48 -8 Left 2 !K1 L1 L2 L3 L4 L5 L6 1.
TEXT -896 40 Left 2 !.tran 0.005
TEXT -904 -168 Left 2 !.lib "C:\\Program Files (x86)\\LTC\\LTspiceIV\\lib\\Cree Power C3D Packaged SPICE Model Library.lib\n.lib "C:\\Program Files (x86)\\LTC\\LTspiceIV\\lib\\Cree Power C4D Packaged SPICE Model Library.lib\n.lib "C:\\Program Files (x86)\\LTC\\LTspiceIV\\lib\\Cree Power CPW4 Bare Die SPICE Model Library.lib
TEXT -904 64 Left 2 !.options Gmin=1e-7 Abstol=1e-7 reltol=1e-2 chgtol=1e-9
TEXT -840 552 Left 2 ;Notes:\n1) It is the customer's responsibility to operation in the actual prototype.\n2) Modifying circuit may affect the performance of the design.\nCopyright © 2016 Wolfspeed Inc. All rights reserved.
TEXT -912 104 Left 2 !.options Noopiter
TEXT -920 152 Left 2 !.IC V(+12V)=10
