Version 4
SHEET 1 880 680
SYMBOL AutoGenerated\\LMG5200_TRANS 208 144 R0
SYMATTR InstName U1
