Version 4
SHEET 1 3864 3572
WIRE 1392 608 1344 608
WIRE 1408 608 1392 608
WIRE 1472 608 1456 608
WIRE 1584 608 1472 608
WIRE 1072 640 848 640
WIRE 1200 640 1136 640
WIRE 1344 656 1344 608
WIRE 1584 656 1584 608
WIRE 848 672 848 640
WIRE 1344 768 1344 736
WIRE 1376 768 1344 768
WIRE 1584 768 1584 736
WIRE 1584 768 1456 768
WIRE 1904 768 1584 768
WIRE 848 784 848 752
WIRE 976 784 848 784
WIRE 1056 784 976 784
WIRE 1200 784 1200 720
WIRE 1200 784 1136 784
WIRE 976 832 976 784
WIRE 1392 976 1392 608
WIRE 1392 976 1344 976
WIRE 1408 976 1392 976
WIRE 1472 976 1456 976
WIRE 1600 976 1472 976
WIRE 1344 1024 1344 976
WIRE 1600 1024 1600 976
WIRE 1344 1136 1344 1104
WIRE 1392 1136 1344 1136
WIRE 1600 1136 1600 1104
WIRE 1600 1136 1472 1136
WIRE 1904 1136 1904 768
WIRE 1904 1136 1600 1136
FLAG 976 832 0
SYMBOL ind2 1184 624 R0
SYMATTR InstName Lp1
SYMATTR Value {Lp}
SYMATTR Type ind
SYMBOL cap 1136 624 R90
WINDOW 0 0 32 VBottom 2
WINDOW 3 32 32 VTop 2
SYMATTR InstName C3
SYMATTR Value {Cp}
SYMBOL ind2 1328 640 R0
SYMATTR InstName Ls1
SYMATTR Value {Ls}
SYMATTR Type ind
SYMBOL cap 1472 592 R90
WINDOW 0 -6 32 VBottom 2
WINDOW 3 32 32 VTop 2
SYMATTR InstName C4
SYMATTR Value {Cs}
SYMBOL voltage_us 848 656 R0
WINDOW 123 -114 72 Left 2
WINDOW 39 0 0 Left 0
WINDOW 3 -301 30 Left 2
SYMATTR Value2 AC 1
SYMATTR Value SINE(0 25.72 {fop1})
SYMATTR InstName V1
SYMBOL ind2 1328 1008 R0
SYMATTR InstName Ls2
SYMATTR Value {Ls}
SYMATTR Type ind
SYMBOL cap 1472 960 R90
WINDOW 0 -6 32 VBottom 2
WINDOW 3 32 32 VTop 2
SYMATTR InstName C1
SYMATTR Value {Cs}
SYMBOL res 1152 768 R90
WINDOW 0 0 56 VBottom 2
WINDOW 3 32 56 VTop 2
SYMATTR InstName R1
SYMATTR Value 0.2
SYMBOL res 1472 752 R90
WINDOW 0 0 56 VBottom 2
WINDOW 3 32 56 VTop 2
SYMATTR InstName R3
SYMATTR Value 0.2
SYMBOL res 1488 1120 R90
WINDOW 0 0 56 VBottom 2
WINDOW 3 32 56 VTop 2
SYMATTR InstName R4
SYMATTR Value 0.2
SYMBOL res 1568 640 R0
SYMATTR InstName R2
SYMATTR Value {R}
SYMBOL res 1584 1008 R0
SYMATTR InstName R5
SYMATTR Value {R}
TEXT 200 1104 Left 2 !;tran 0 2m 0 1e-8
TEXT 208 1312 Left 2 !.param f=160k  \n.param Ls=8.8u\n.param Lp=43.6u\n.param Cp 22n\n.param Cs 109n\n;step param k list 0 0.05 0.1  0.15 0.20\n.param k 0.2\n.step param R list 4  8 12 16\n;param R 8
TEXT 192 1056 Left 2 !.ac lin 1000 120000 200000
TEXT 208 968 Left 2 !.param fop1= {f}
TEXT 208 824 Left 2 !.options gmin=1e-10   \n.options abstol=1e-10  \n.options reltol=0.003  \n.options cshunt=1e-15
TEXT 912 1176 Left 2 !K1 Lp1 Ls1 0.2\nK2 Lp1 Ls2 {k}
