Version 4
SHEET 1 3864 3572
WIRE 960 640 848 640
WIRE 1088 640 1024 640
WIRE 1312 640 1248 640
WIRE 1488 640 1376 640
WIRE 848 672 848 640
WIRE 1248 688 1248 640
WIRE 848 784 848 752
WIRE 976 784 848 784
WIRE 1088 784 1088 720
WIRE 1088 784 1056 784
WIRE 1248 800 1248 768
WIRE 1328 800 1248 800
WIRE 1488 800 1408 800
WIRE 848 832 848 784
WIRE 1088 1312 912 1312
WIRE 1088 1360 1088 1312
WIRE 1088 1488 1088 1440
WIRE 1088 1488 896 1488
FLAG 848 832 0
FLAG 1488 640 Vo+
FLAG 1488 800 Vo-
FLAG 912 1312 Vo+
FLAG 896 1488 Vo-
SYMBOL ind2 1072 624 R0
SYMATTR InstName Lp1
SYMATTR Value {Lp}
SYMATTR Type ind
SYMBOL cap 1024 624 R90
WINDOW 0 0 32 VBottom 2
WINDOW 3 32 32 VTop 2
SYMATTR InstName C3
SYMATTR Value {Cp}
SYMBOL ind2 1232 672 R0
SYMATTR InstName Ls1
SYMATTR Value {Ls}
SYMATTR Type ind
SYMBOL cap 1376 624 R90
WINDOW 0 -6 32 VBottom 2
WINDOW 3 32 32 VTop 2
SYMATTR InstName C4
SYMATTR Value {Cs}
SYMBOL voltage_us 848 656 R0
WINDOW 123 -114 72 Left 2
WINDOW 39 0 0 Left 0
WINDOW 3 -301 30 Left 2
SYMATTR Value2 AC 1
SYMATTR Value SINE(0 127 {fop1})
SYMATTR InstName V1
SYMBOL res 1072 768 R90
WINDOW 0 0 56 VBottom 2
WINDOW 3 32 56 VTop 2
SYMATTR InstName Rp1
SYMATTR Value {4000*Lp}
SYMBOL res 1424 784 R90
WINDOW 0 0 56 VBottom 2
WINDOW 3 32 56 VTop 2
SYMATTR InstName Rs1
SYMATTR Value {4000*Ls}
SYMBOL res 1072 1344 R0
SYMATTR InstName RL
SYMATTR Value 32.418
TEXT -344 1344 Left 2 !.param f=150k  \n.param Ls=66u\n.param Lp=83u\n.param Cp 1/(4*pi*pi*f*f*Lp)\n.param Cs 1/(4*pi*pi*f*f*Ls)\n.param k=0.22
TEXT 192 1056 Left 2 !.ac lin 1000 100000 300000
TEXT -360 1080 Left 2 !.param fop1=150k
TEXT -344 1256 Left 2 !K1 Lp1 Ls1 {k}
TEXT -344 632 Left 2 !.options gmin=1e-10   \n.options abstol=1e-10  \n.options reltol=0.003  \n.options cshunt=1e-15
