Version 4
SHEET 1 3864 3572
WIRE 960 640 848 640
WIRE 1088 640 1024 640
WIRE 1472 640 1248 640
WIRE 1488 640 1472 640
WIRE 848 672 848 640
WIRE 1248 688 1248 640
WIRE 1472 688 1472 640
WIRE 848 784 848 752
WIRE 976 784 848 784
WIRE 1088 784 1088 720
WIRE 1088 784 1056 784
WIRE 1248 800 1248 768
WIRE 1328 800 1248 800
WIRE 1472 800 1472 752
WIRE 1472 800 1408 800
WIRE 1488 800 1472 800
WIRE 848 832 848 784
WIRE 1248 944 1152 944
WIRE 1280 944 1248 944
WIRE 1392 944 1360 944
WIRE 1408 944 1392 944
WIRE 1248 960 1248 944
WIRE 928 1008 896 1008
WIRE 1152 1008 1008 1008
WIRE 1440 1056 1392 944
WIRE 1248 1088 1248 1024
WIRE 1248 1088 896 1088
WIRE 1152 1104 1152 1008
WIRE 1248 1104 1248 1088
WIRE 1152 1216 1152 1168
WIRE 1248 1216 1248 1168
WIRE 1248 1216 1152 1216
WIRE 1408 1216 1440 1120
WIRE 1408 1216 1248 1216
WIRE 1088 1312 912 1312
WIRE 1088 1360 1088 1312
WIRE 1088 1488 1088 1440
WIRE 1088 1488 896 1488
FLAG 848 832 0
FLAG 1408 944 VOUT+
FLAG 1408 1216 VOUT-
FLAG 1488 640 Vo+
FLAG 896 1008 Vo+
FLAG 1488 800 Vo-
FLAG 896 1088 Vo-
FLAG 912 1312 VOUT+
FLAG 896 1488 VOUT-
SYMBOL ind2 1072 624 R0
SYMATTR InstName Lp1
SYMATTR Value {Lp}
SYMATTR Type ind
SYMBOL cap 1024 624 R90
WINDOW 0 0 32 VBottom 2
WINDOW 3 32 32 VTop 2
SYMATTR InstName C3
SYMATTR Value {Cp}
SYMBOL ind2 1232 672 R0
SYMATTR InstName Ls1
SYMATTR Value {Ls}
SYMATTR Type ind
SYMBOL cap 1488 752 R180
WINDOW 0 24 56 Left 2
WINDOW 3 24 8 Left 2
SYMATTR InstName C4
SYMATTR Value {Cs}
SYMBOL voltage_us 848 656 R0
WINDOW 123 -114 72 Left 2
WINDOW 39 0 0 Left 0
WINDOW 3 -301 30 Left 2
SYMATTR Value2 AC 1
SYMATTR Value SINE(0 127 {fop1})
SYMATTR InstName V1
SYMBOL diode 1264 1168 R180
WINDOW 0 24 64 Left 2
WINDOW 3 24 0 Left 2
SYMATTR InstName D13
SYMBOL diode 1168 1168 R180
WINDOW 0 24 64 Left 2
WINDOW 3 24 0 Left 2
SYMATTR InstName D14
SYMBOL diode 1264 1024 R180
WINDOW 0 24 64 Left 2
WINDOW 3 24 0 Left 2
SYMATTR InstName D16
SYMBOL diode 1168 1008 R180
WINDOW 0 24 64 Left 2
WINDOW 3 24 0 Left 2
SYMATTR InstName D15
SYMBOL cap 1424 1056 R0
SYMATTR InstName C7
SYMATTR Value 1µ
SYMBOL res 1376 928 R90
WINDOW 0 0 56 VBottom 2
WINDOW 3 32 56 VTop 2
SYMATTR InstName R1
SYMATTR Value 0.001
SYMBOL res 1072 768 R90
WINDOW 0 0 56 VBottom 2
WINDOW 3 32 56 VTop 2
SYMATTR InstName Rp1
SYMATTR Value {4000*Lp}
SYMBOL res 1424 784 R90
WINDOW 0 0 56 VBottom 2
WINDOW 3 32 56 VTop 2
SYMATTR InstName Rs1
SYMATTR Value {4000*Ls}
SYMBOL res 1072 1344 R0
SYMATTR InstName RL
SYMATTR Value 20
SYMBOL res 1024 992 R90
WINDOW 0 0 56 VBottom 2
WINDOW 3 32 56 VTop 2
SYMATTR InstName R2
SYMATTR Value 1m
TEXT 200 1104 Left 2 !.tran 0 2m 0 1e-8
TEXT -344 1344 Left 2 !.param f=150k  \n.param Ls=4.3u\n.param Lp=73.5u\n.param k=0.22\n.param Cp 1/(4*pi*pi*f*f*Lp*(1-{k}*{k}))\n.param Cs 1/(4*pi*pi*f*f*Ls)
TEXT 192 1056 Left 2 !;ac lin 1000 100000 300000
TEXT -360 1080 Left 2 !.param fop1=150k
TEXT -344 1256 Left 2 !K1 Lp1 Ls1 {k}
TEXT -344 632 Left 2 !.options gmin=1e-10   \n.options abstol=1e-10  \n.options reltol=0.003  \n.options cshunt=1e-15
