Version 4
SHEET 1 3864 3572
WIRE 1680 512 1584 512
WIRE 1712 512 1680 512
WIRE 1824 512 1792 512
WIRE 1840 512 1824 512
WIRE 1680 528 1680 512
WIRE 1408 608 1344 608
WIRE 1584 608 1584 576
WIRE 1584 608 1472 608
WIRE 1792 624 1792 512
WIRE 1872 624 1824 512
WIRE 1072 640 848 640
WIRE 1200 640 1136 640
WIRE 1680 640 1680 592
WIRE 1680 640 1504 640
WIRE 1344 656 1344 608
WIRE 848 672 848 640
WIRE 1584 672 1584 608
WIRE 1680 672 1680 640
WIRE 1344 768 1344 736
WIRE 1504 768 1504 640
WIRE 1504 768 1344 768
WIRE 848 784 848 752
WIRE 976 784 848 784
WIRE 1200 784 1200 720
WIRE 1200 784 976 784
WIRE 1584 784 1584 736
WIRE 1680 784 1680 736
WIRE 1680 784 1584 784
WIRE 1792 784 1792 688
WIRE 1792 784 1680 784
WIRE 1824 784 1792 784
WIRE 1840 784 1824 784
WIRE 1680 816 1584 816
WIRE 1824 816 1824 784
WIRE 1824 816 1680 816
WIRE 1840 816 1824 816
WIRE 976 832 976 784
WIRE 1680 832 1680 816
WIRE 1408 912 1344 912
WIRE 1584 912 1584 880
WIRE 1584 912 1472 912
WIRE 1824 928 1824 816
WIRE 1680 944 1680 896
WIRE 1680 944 1504 944
WIRE 1344 960 1344 912
WIRE 1584 976 1584 912
WIRE 1680 976 1680 944
WIRE 1584 1088 1584 1040
WIRE 1680 1088 1680 1040
WIRE 1680 1088 1584 1088
WIRE 1728 1088 1680 1088
WIRE 1824 1088 1824 992
WIRE 1824 1088 1808 1088
WIRE 1840 1088 1824 1088
WIRE 1344 1104 1344 1040
WIRE 1504 1104 1504 944
WIRE 1504 1104 1344 1104
WIRE 2112 1120 2080 1120
WIRE 2112 1184 2112 1120
WIRE 2112 1328 2112 1264
WIRE 2112 1328 2080 1328
FLAG 976 832 0
FLAG 1840 512 VOUT+
FLAG 1840 1088 VOUT-
FLAG 2080 1120 VOUT+
FLAG 2080 1328 VOUT-
FLAG 1872 688 VOUT-
SYMBOL ind2 1184 624 R0
SYMATTR InstName Lp1
SYMATTR Value {Lp}
SYMATTR Type ind
SYMBOL cap 1136 624 R90
WINDOW 0 0 32 VBottom 2
WINDOW 3 32 32 VTop 2
SYMATTR InstName C3
SYMATTR Value {Cp}
SYMBOL ind2 1328 640 R0
SYMATTR InstName Ls1
SYMATTR Value {Ls}
SYMATTR Type ind
SYMBOL cap 1472 592 R90
WINDOW 0 -6 32 VBottom 2
WINDOW 3 32 32 VTop 2
SYMATTR InstName C4
SYMATTR Value {Cs}
SYMBOL voltage_us 848 656 R0
WINDOW 123 -114 72 Left 2
WINDOW 39 0 0 Left 0
WINDOW 3 -301 30 Left 2
SYMATTR Value2 AC 1
SYMATTR Value SINE(0 127 {fop1})
SYMATTR InstName V1
SYMBOL diode 1696 736 R180
WINDOW 0 24 64 Left 2
WINDOW 3 24 0 Left 2
SYMATTR InstName D13
SYMBOL diode 1600 736 R180
WINDOW 0 24 64 Left 2
WINDOW 3 24 0 Left 2
SYMATTR InstName D14
SYMBOL diode 1696 592 R180
WINDOW 0 24 64 Left 2
WINDOW 3 24 0 Left 2
SYMATTR InstName D16
SYMBOL diode 1600 576 R180
WINDOW 0 24 64 Left 2
WINDOW 3 24 0 Left 2
SYMATTR InstName D15
SYMBOL ind2 1328 944 R0
SYMATTR InstName Ls2
SYMATTR Value {Ls}
SYMATTR Type ind
SYMBOL cap 1472 896 R90
WINDOW 0 -6 32 VBottom 2
WINDOW 3 32 32 VTop 2
SYMATTR InstName C1
SYMATTR Value {Cs}
SYMBOL diode 1696 1040 R180
WINDOW 0 24 64 Left 2
WINDOW 3 24 0 Left 2
SYMATTR InstName D9
SYMBOL diode 1600 1040 R180
WINDOW 0 24 64 Left 2
WINDOW 3 24 0 Left 2
SYMATTR InstName D10
SYMBOL diode 1696 896 R180
WINDOW 0 24 64 Left 2
WINDOW 3 24 0 Left 2
SYMATTR InstName D11
SYMBOL diode 1600 880 R180
WINDOW 0 24 64 Left 2
WINDOW 3 24 0 Left 2
SYMATTR InstName D12
SYMBOL cap 1856 624 R0
SYMATTR InstName C7
SYMATTR Value 1µ
SYMBOL res 2096 1168 R0
SYMATTR InstName R6
SYMATTR Value 40
SYMBOL res 1808 496 R90
WINDOW 0 0 56 VBottom 2
WINDOW 3 32 56 VTop 2
SYMATTR InstName R1
SYMATTR Value 0.001
SYMBOL res 1824 1072 R90
WINDOW 0 0 56 VBottom 2
WINDOW 3 32 56 VTop 2
SYMATTR InstName R2
SYMATTR Value 0.001
SYMBOL cap 1776 624 R0
SYMATTR InstName C2
SYMATTR Value 1µ
SYMBOL cap 1808 928 R0
SYMATTR InstName C5
SYMATTR Value 1µ
TEXT 200 1104 Left 2 !.tran 0 2m 0 1e-8
TEXT 208 1312 Left 2 !.param f=150k  \n.param Ls=68u\n.param Lp=81u\n.param Cp 1/(4*pi*pi*f*f*Lp)\n.param Cs 1/(4*pi*pi*f*f*Ls)\n.param k=0.23
TEXT 192 1056 Left 2 !;ac lin 1000 100000 300000
TEXT 208 968 Left 2 !.param fop1=150k
TEXT 208 824 Left 2 !.options gmin=1e-10   \n.options abstol=1e-10  \n.options reltol=0.003  \n.options cshunt=1e-15
TEXT -336 1168 Left 2 !K1 Lp1 Ls1 0.23\nK2 Lp1 Ls2  0.23
TEXT -624 1176 Left 2 !K9 Ls1 Ls2 {ks}
TEXT -544 976 Left 2 !.param ks=0
