Version 4
SHEET 1 3864 3572
WIRE 1680 512 1584 512
WIRE 1728 512 1680 512
WIRE 1840 512 1728 512
WIRE 1680 528 1680 512
WIRE 1408 608 1344 608
WIRE 1584 608 1584 576
WIRE 1584 608 1472 608
WIRE 1728 608 1728 512
WIRE 1072 640 848 640
WIRE 1200 640 1136 640
WIRE 1680 640 1680 592
WIRE 1680 640 1504 640
WIRE 1344 656 1344 608
WIRE 848 672 848 640
WIRE 1584 672 1584 608
WIRE 1680 672 1680 640
WIRE 1344 768 1344 736
WIRE 1504 768 1504 640
WIRE 1504 768 1344 768
WIRE 848 784 848 752
WIRE 976 784 848 784
WIRE 1200 784 1200 720
WIRE 1200 784 976 784
WIRE 1584 784 1584 736
WIRE 1680 784 1680 736
WIRE 1680 784 1584 784
WIRE 1728 784 1728 672
WIRE 1728 784 1680 784
WIRE 1840 784 1728 784
WIRE 1680 816 1584 816
WIRE 1728 816 1680 816
WIRE 1840 816 1728 816
WIRE 976 832 976 784
WIRE 1680 832 1680 816
WIRE 1408 912 1344 912
WIRE 1584 912 1584 880
WIRE 1584 912 1472 912
WIRE 1728 912 1728 816
WIRE 1680 944 1680 896
WIRE 1680 944 1504 944
WIRE 1344 960 1344 912
WIRE 1584 976 1584 912
WIRE 1680 976 1680 944
WIRE 1344 1072 1344 1040
WIRE 1344 1072 1328 1072
WIRE 1504 1072 1504 944
WIRE 1504 1072 1344 1072
WIRE 1584 1088 1584 1040
WIRE 1680 1088 1680 1040
WIRE 1680 1088 1584 1088
WIRE 1728 1088 1728 976
WIRE 1728 1088 1680 1088
WIRE 1840 1088 1728 1088
WIRE 1680 1120 1584 1120
WIRE 1728 1120 1680 1120
WIRE 1840 1120 1728 1120
WIRE 2112 1120 2080 1120
WIRE 1680 1136 1680 1120
WIRE 2112 1184 2112 1120
WIRE 1408 1216 1344 1216
WIRE 1584 1216 1584 1184
WIRE 1584 1216 1472 1216
WIRE 1728 1216 1728 1120
WIRE 1072 1248 848 1248
WIRE 1088 1248 1072 1248
WIRE 1200 1248 1136 1248
WIRE 1680 1248 1680 1200
WIRE 1680 1248 1504 1248
WIRE 1344 1264 1344 1216
WIRE 848 1280 848 1248
WIRE 1584 1280 1584 1216
WIRE 1680 1280 1680 1248
WIRE 2112 1328 2112 1264
WIRE 2112 1328 2080 1328
WIRE 1344 1376 1344 1344
WIRE 1504 1376 1504 1248
WIRE 1504 1376 1344 1376
WIRE 848 1392 848 1360
WIRE 976 1392 848 1392
WIRE 1200 1392 1200 1328
WIRE 1200 1392 976 1392
WIRE 1584 1392 1584 1344
WIRE 1680 1392 1680 1344
WIRE 1680 1392 1584 1392
WIRE 1728 1392 1728 1280
WIRE 1728 1392 1680 1392
WIRE 1840 1392 1728 1392
WIRE 1680 1424 1584 1424
WIRE 1728 1424 1680 1424
WIRE 1840 1424 1728 1424
WIRE 976 1440 976 1392
WIRE 1680 1440 1680 1424
WIRE 1408 1520 1344 1520
WIRE 1584 1520 1584 1488
WIRE 1584 1520 1472 1520
WIRE 1728 1520 1728 1424
WIRE 1680 1552 1680 1504
WIRE 1680 1552 1504 1552
WIRE 1344 1568 1344 1520
WIRE 1584 1584 1584 1520
WIRE 1680 1584 1680 1552
WIRE 1344 1680 1344 1648
WIRE 1344 1680 1328 1680
WIRE 1504 1680 1504 1552
WIRE 1504 1680 1344 1680
WIRE 1584 1696 1584 1648
WIRE 1680 1696 1680 1648
WIRE 1680 1696 1584 1696
WIRE 1728 1696 1728 1584
WIRE 1728 1696 1680 1696
WIRE 1840 1696 1728 1696
FLAG 976 832 0
FLAG 976 1440 0
FLAG 1840 512 VOUT+
FLAG 1840 784 VOUT-
FLAG 1840 816 VOUT+
FLAG 1840 1088 VOUT-
FLAG 1840 1120 VOUT+
FLAG 1840 1392 VOUT-
FLAG 1840 1424 VOUT+
FLAG 1840 1696 VOUT-
FLAG 2080 1120 VOUT+
FLAG 2080 1328 VOUT-
SYMBOL ind2 1184 624 R0
SYMATTR InstName Lp1
SYMATTR Value {Lp1}
SYMATTR Type ind
SYMBOL cap 1136 624 R90
WINDOW 0 0 32 VBottom 2
WINDOW 3 32 32 VTop 2
SYMATTR InstName C3
SYMATTR Value {Cp}
SYMBOL ind2 1328 640 R0
SYMATTR InstName Ls1
SYMATTR Value {Ls1}
SYMATTR Type ind
SYMBOL cap 1472 592 R90
WINDOW 0 -6 32 VBottom 2
WINDOW 3 32 32 VTop 2
SYMATTR InstName C4
SYMATTR Value {Cs}
SYMBOL voltage_us 848 656 R0
WINDOW 123 -114 72 Left 2
WINDOW 39 0 0 Left 0
WINDOW 3 -301 30 Left 2
SYMATTR Value2 AC 1
SYMATTR Value SINE(0 127 {fop1})
SYMATTR InstName V1
SYMBOL diode 1696 736 R180
WINDOW 0 24 64 Left 2
WINDOW 3 24 0 Left 2
SYMATTR InstName D13
SYMBOL diode 1600 736 R180
WINDOW 0 24 64 Left 2
WINDOW 3 24 0 Left 2
SYMATTR InstName D14
SYMBOL diode 1696 592 R180
WINDOW 0 24 64 Left 2
WINDOW 3 24 0 Left 2
SYMATTR InstName D16
SYMBOL diode 1600 576 R180
WINDOW 0 24 64 Left 2
WINDOW 3 24 0 Left 2
SYMATTR InstName D15
SYMBOL ind2 1328 944 R0
SYMATTR InstName Ls2
SYMATTR Value {Ls2}
SYMATTR Type ind
SYMBOL cap 1472 896 R90
WINDOW 0 -6 32 VBottom 2
WINDOW 3 32 32 VTop 2
SYMATTR InstName C1
SYMATTR Value {Cs}
SYMBOL diode 1696 1040 R180
WINDOW 0 24 64 Left 2
WINDOW 3 24 0 Left 2
SYMATTR InstName D9
SYMBOL diode 1600 1040 R180
WINDOW 0 24 64 Left 2
WINDOW 3 24 0 Left 2
SYMATTR InstName D10
SYMBOL diode 1696 896 R180
WINDOW 0 24 64 Left 2
WINDOW 3 24 0 Left 2
SYMATTR InstName D11
SYMBOL diode 1600 880 R180
WINDOW 0 24 64 Left 2
WINDOW 3 24 0 Left 2
SYMATTR InstName D12
SYMBOL ind2 1184 1232 R0
SYMATTR InstName Lp2
SYMATTR Value {Lp2}
SYMATTR Type ind
SYMBOL cap 1136 1232 R90
WINDOW 0 0 32 VBottom 2
WINDOW 3 32 32 VTop 2
SYMATTR InstName C2
SYMATTR Value {Cp}
SYMBOL ind2 1328 1248 R0
SYMATTR InstName Ls3
SYMATTR Value {Ls3}
SYMATTR Type ind
SYMBOL cap 1472 1200 R90
WINDOW 0 -6 32 VBottom 2
WINDOW 3 32 32 VTop 2
SYMATTR InstName C5
SYMATTR Value {Cs}
SYMBOL voltage_us 848 1264 R0
WINDOW 123 -112 48 Left 2
WINDOW 39 0 0 Left 0
WINDOW 3 -231 0 Left 2
SYMATTR Value2 AC 1
SYMATTR Value SINE(0 127 {fop1})
SYMATTR InstName V2
SYMBOL diode 1696 1344 R180
WINDOW 0 24 64 Left 2
WINDOW 3 24 0 Left 2
SYMATTR InstName D1
SYMBOL diode 1600 1344 R180
WINDOW 0 24 64 Left 2
WINDOW 3 24 0 Left 2
SYMATTR InstName D2
SYMBOL diode 1696 1200 R180
WINDOW 0 24 64 Left 2
WINDOW 3 24 0 Left 2
SYMATTR InstName D3
SYMBOL diode 1600 1184 R180
WINDOW 0 24 64 Left 2
WINDOW 3 24 0 Left 2
SYMATTR InstName D4
SYMBOL ind2 1328 1552 R0
SYMATTR InstName Ls4
SYMATTR Value {Ls4}
SYMATTR Type ind
SYMBOL cap 1472 1504 R90
WINDOW 0 -6 32 VBottom 2
WINDOW 3 32 32 VTop 2
SYMATTR InstName C6
SYMATTR Value {Cs}
SYMBOL diode 1696 1648 R180
WINDOW 0 24 64 Left 2
WINDOW 3 24 0 Left 2
SYMATTR InstName D5
SYMBOL diode 1600 1648 R180
WINDOW 0 24 64 Left 2
WINDOW 3 24 0 Left 2
SYMATTR InstName D6
SYMBOL diode 1696 1504 R180
WINDOW 0 24 64 Left 2
WINDOW 3 24 0 Left 2
SYMATTR InstName D7
SYMBOL diode 1600 1488 R180
WINDOW 0 24 64 Left 2
WINDOW 3 24 0 Left 2
SYMATTR InstName D8
SYMBOL cap 1712 608 R0
SYMATTR InstName C7
SYMATTR Value 1µ
SYMBOL cap 1712 912 R0
SYMATTR InstName C8
SYMATTR Value 1µ
SYMBOL cap 1712 1216 R0
SYMATTR InstName C9
SYMATTR Value 1µ
SYMBOL cap 1712 1520 R0
SYMATTR InstName C10
SYMATTR Value 1µ
SYMBOL res 2096 1168 R0
SYMATTR InstName R6
SYMATTR Value 10
TEXT 200 1104 Left 2 !.tran 0 1m 0 1e-8
TEXT 208 1312 Left 2 !.param f=150k  \n.param Ls=68.8u\n.param Lp=81u\n.param Ls1=Ls\n.param Ls2=Ls\n.param Ls3=Ls\n.param Ls4=Ls\n.param Lp1=Lp\n.param Lp2=Lp\n.param Cp 1/(4*pi*pi*f*f*Lp)\n.param Cs 1/(4*pi*pi*f*f*Ls)\n.param k=0.23
TEXT 192 1056 Left 2 !;ac lin 1000 100000 300000
TEXT 208 968 Left 2 !.param fop1=150k
TEXT 208 824 Left 2 !.options gmin=1e-10   \n.options abstol=1e-10  \n.options reltol=0.003  \n.options cshunt=1e-15
TEXT -336 1168 Left 2 !K1 Lp1 Ls1 0.20\nK2 Lp1 Ls2  0.23\nK5 Lp1 Ls3 0.01\nK6 Lp1 Ls4  0.01
TEXT -96 1168 Left 2 !K7 Lp2 Ls1 0.01\nK8 Lp2 Ls2  0.01\nK4 Lp2 Ls3  0.21\nK3 Lp2 Ls4  0.24
TEXT -624 1176 Left 2 !K9 Ls1 Ls2 -0.29\nK10 Ls1 Ls3 -0.02\nK11 Ls1 Ls4 -0.30\nK12 Ls2 Ls3 -0.32\nK13 Ls2 Ls4  -0.01\nK14 Ls3 Ls4 -0.31
TEXT -632 1096 Left 2 !K15 Lp1 Lp2 0
