Version 4
SHEET 1 3864 3572
WIRE 1408 608 1344 608
WIRE 1616 608 1472 608
WIRE 1728 608 1696 608
WIRE 1072 640 848 640
WIRE 1200 640 1136 640
WIRE 1728 640 1728 608
WIRE 1728 640 1504 640
WIRE 1344 656 1344 608
WIRE 848 672 848 640
WIRE 1344 768 1344 736
WIRE 1504 768 1504 640
WIRE 1504 768 1344 768
WIRE 848 784 848 752
WIRE 976 784 848 784
WIRE 1200 784 1200 720
WIRE 1200 784 976 784
WIRE 976 832 976 784
WIRE 1200 832 1200 784
WIRE 1248 832 1200 832
WIRE 1344 832 1344 768
WIRE 1344 832 1328 832
WIRE 1408 912 1344 912
WIRE 1696 912 1472 912
WIRE 1840 912 1776 912
WIRE 1840 944 1840 912
WIRE 1840 944 1504 944
WIRE 1344 960 1344 912
WIRE 1200 1072 1200 832
WIRE 1248 1072 1200 1072
WIRE 1344 1072 1344 1040
WIRE 1344 1072 1328 1072
WIRE 1504 1072 1504 944
WIRE 1504 1072 1344 1072
WIRE 1408 1216 1344 1216
WIRE 1696 1216 1472 1216
WIRE 1904 1216 1776 1216
WIRE 1072 1248 848 1248
WIRE 1200 1248 1136 1248
WIRE 1904 1248 1904 1216
WIRE 1904 1248 1504 1248
WIRE 1344 1264 1344 1216
WIRE 848 1280 848 1248
WIRE 1344 1376 1344 1344
WIRE 1504 1376 1504 1248
WIRE 1504 1376 1344 1376
WIRE 848 1392 848 1360
WIRE 976 1392 848 1392
WIRE 1200 1392 1200 1328
WIRE 1200 1392 976 1392
WIRE 976 1440 976 1392
WIRE 1200 1440 1200 1392
WIRE 1248 1440 1200 1440
WIRE 1344 1440 1344 1376
WIRE 1344 1440 1328 1440
WIRE 1408 1520 1344 1520
WIRE 1712 1520 1472 1520
WIRE 1952 1520 1792 1520
WIRE 1680 1552 1504 1552
WIRE 1344 1568 1344 1520
WIRE 1680 1584 1680 1552
WIRE 1952 1584 1952 1520
WIRE 1952 1584 1680 1584
WIRE 1200 1680 1200 1440
WIRE 1248 1680 1200 1680
WIRE 1344 1680 1344 1648
WIRE 1344 1680 1328 1680
WIRE 1504 1680 1504 1552
WIRE 1504 1680 1344 1680
FLAG 976 832 0
FLAG 976 1440 0
SYMBOL ind2 1184 624 R0
SYMATTR InstName L1
SYMATTR Value {Lp}
SYMATTR Type ind
SYMBOL cap 1136 624 R90
WINDOW 0 0 32 VBottom 2
WINDOW 3 32 32 VTop 2
SYMATTR InstName C3
SYMATTR Value {Cp}
SYMBOL ind2 1328 640 R0
SYMATTR InstName L2
SYMATTR Value {Ls}
SYMATTR Type ind
SYMBOL cap 1472 592 R90
WINDOW 0 -6 32 VBottom 2
WINDOW 3 32 32 VTop 2
SYMATTR InstName C4
SYMATTR Value {Cs}
SYMBOL voltage_us 848 656 R0
WINDOW 123 -114 72 Left 2
WINDOW 39 0 0 Left 0
WINDOW 3 -301 30 Left 2
SYMATTR Value2 AC 1
SYMATTR Value SINE(0 127 {fop1})
SYMATTR InstName V1
SYMBOL ind2 1328 944 R0
SYMATTR InstName L3
SYMATTR Value {Ls}
SYMATTR Type ind
SYMBOL cap 1472 896 R90
WINDOW 0 -6 32 VBottom 2
WINDOW 3 32 32 VTop 2
SYMATTR InstName C1
SYMATTR Value {Cs}
SYMBOL ind2 1184 1232 R0
SYMATTR InstName L4
SYMATTR Value {Lp}
SYMATTR Type ind
SYMBOL cap 1136 1232 R90
WINDOW 0 0 32 VBottom 2
WINDOW 3 32 32 VTop 2
SYMATTR InstName C2
SYMATTR Value {Cp}
SYMBOL ind2 1328 1248 R0
SYMATTR InstName L5
SYMATTR Value {Ls}
SYMATTR Type ind
SYMBOL cap 1472 1200 R90
WINDOW 0 -6 32 VBottom 2
WINDOW 3 32 32 VTop 2
SYMATTR InstName C5
SYMATTR Value {Cs}
SYMBOL voltage_us 848 1264 R0
WINDOW 123 -112 48 Left 2
WINDOW 39 0 0 Left 0
WINDOW 3 -231 0 Left 2
SYMATTR Value2 AC 1
SYMATTR Value SINE(0 127 {fop1})
SYMATTR InstName V2
SYMBOL ind2 1328 1552 R0
SYMATTR InstName L6
SYMATTR Value {Ls}
SYMATTR Type ind
SYMBOL cap 1472 1504 R90
WINDOW 0 -6 32 VBottom 2
WINDOW 3 32 32 VTop 2
SYMATTR InstName C6
SYMATTR Value {Cs}
SYMBOL res 1344 816 R90
WINDOW 0 0 56 VBottom 2
WINDOW 3 32 56 VTop 2
SYMATTR InstName R1
SYMATTR Value 10k
SYMBOL res 1344 1056 R90
WINDOW 0 0 56 VBottom 2
WINDOW 3 32 56 VTop 2
SYMATTR InstName R2
SYMATTR Value 10k
SYMBOL res 1344 1424 R90
WINDOW 0 0 56 VBottom 2
WINDOW 3 32 56 VTop 2
SYMATTR InstName R3
SYMATTR Value 10k
SYMBOL res 1344 1664 R90
WINDOW 0 0 56 VBottom 2
WINDOW 3 32 56 VTop 2
SYMATTR InstName R4
SYMATTR Value 10k
SYMBOL res 1712 592 R90
WINDOW 0 0 56 VBottom 2
WINDOW 3 32 56 VTop 2
SYMATTR InstName R5
SYMATTR Value 32.42
SYMBOL res 1792 896 R90
WINDOW 0 0 56 VBottom 2
WINDOW 3 32 56 VTop 2
SYMATTR InstName R6
SYMATTR Value 32.42
SYMBOL res 1792 1200 R90
WINDOW 0 0 56 VBottom 2
WINDOW 3 32 56 VTop 2
SYMATTR InstName R7
SYMATTR Value 32.42
SYMBOL res 1808 1504 R90
WINDOW 0 0 56 VBottom 2
WINDOW 3 32 56 VTop 2
SYMATTR InstName R8
SYMATTR Value 32.42
TEXT 200 1104 Left 2 !;tran 0 4m 0
TEXT 200 1152 Left 2 !K1 L1 L2 {k}
TEXT 200 1192 Left 2 !K2 L1 L3 {k}
TEXT 200 1232 Left 2 !K3 L4 L6 {k}
TEXT 200 1272 Left 2 !K4 L4 L5 {k}
TEXT 208 1312 Left 2 !.param f=150k\n.param Ls=68.8u\n.param Lp=68.7u\n.param Cp 1/(4*pi*pi*f*f*Lp)\n.param Cs 1/(4*pi*pi*f*f*Ls)\n.param k=0.48
TEXT 192 1056 Left 2 !.ac lin 1000 100000 250000
TEXT 208 968 Left 2 !.param fop1 156k
TEXT 208 824 Left 2 !.options gmin=1e-10   \n.options abstol=1e-10  \n.options reltol=0.003  \n.options cshunt=1e-15
